


 39 43  0  0  0  0  0  0  0  0999 V2000
   34.9868  -17.5518   25.5881 N   0  0  0  0  0  0  0  0  0  0  0  0
   34.2773  -18.6155   25.2332 C   0  0  0  0  0  0  0  0  0  0  0  0
   32.9387  -18.5571   25.0809 O   0  0  0  0  0  0  0  0  0  0  0  0
   34.8888  -19.7928   25.0783 N   0  0  0  0  0  0  0  0  0  0  0  0
   36.1823  -19.8697   25.2304 C   0  0  0  0  0  0  0  0  0  0  0  0
   36.9025  -18.8033   25.5740 N   0  0  0  0  0  0  0  0  0  0  0  0
   36.2970  -17.6288   25.7478 C   0  0  0  0  0  0  0  0  0  0  0  0
   36.9311  -16.6721   26.0708 O   0  0  0  0  0  0  0  0  0  0  0  0
   36.7921  -21.1588   25.0076 N   0  0  0  0  0  0  0  0  0  0  0  0
   37.7689  -21.2709   25.0590 H   0  0  0  0  0  0  0  0  0  0  0  0
   35.9274  -22.2867   24.7056 C   0  0  0  0  0  0  0  0  0  0  0  0
   35.3305  -22.9599   25.7787 C   0  0  0  0  0  0  0  0  0  0  0  0
   34.4734  -24.0527   25.5289 C   0  0  0  0  0  0  0  0  0  0  0  0
   33.7103  -24.9392   26.3583 C   0  0  0  0  0  0  0  0  0  0  0  0
   33.0887  -25.7820   25.5576 N   0  0  0  0  0  0  0  0  0  0  0  0
   32.2076  -26.8472   25.9848 C   0  0  0  0  0  0  0  0  0  0  0  0
   33.3773  -25.5149   24.2846 N   0  0  0  0  0  0  0  0  0  0  0  0
   34.2236  -24.4781   24.2263 C   0  0  0  0  0  0  0  0  0  0  0  0
   34.8206  -23.8035   23.1366 C   0  0  0  0  0  0  0  0  0  0  0  0
   35.6623  -22.7284   23.3853 C   0  0  0  0  0  0  0  0  0  0  0  0
   36.3929  -21.9105   21.9882 Cl  0  0  0  0  0  0  0  0  0  0  0  0
   34.3019  -16.2792   25.6904 C   0  0  0  0  0  0  0  0  0  0  0  0
   33.6305  -17.1548   22.5407 C   0  0  0  0  0  0  0  0  0  0  0  0
   34.1762  -15.9011   23.1132 C   0  0  0  0  0  0  0  0  0  0  0  0
   34.5212  -14.8397   22.3207 N   0  0  0  0  0  0  0  0  0  0  0  0
   34.9873  -13.7862   23.0063 N   0  0  0  0  0  0  0  0  0  0  0  0
   34.9567  -14.1961   24.2742 C   0  0  0  0  0  0  0  0  0  0  0  0
   34.4610  -15.5152   24.4125 C   0  0  0  0  0  0  0  0  0  0  0  0
   34.4350  -14.8490   21.3400 H   0  0  0  0  0  0  0  0  0  0  0  0
   38.3427  -18.8992   25.7558 C   0  0  0  0  0  0  0  0  0  0  0  0
   39.0691  -18.4592   24.4882 C   0  0  0  0  0  0  0  0  0  0  0  0
   38.5627  -18.7589   23.2181 C   0  0  0  0  0  0  0  0  0  0  0  0
   39.2499  -18.3205   22.0988 C   0  0  0  0  0  0  0  0  0  0  0  0
   38.8164  -18.5730   20.8295 F   0  0  0  0  0  0  0  0  0  0  0  0
   40.4279  -17.6197   22.2396 C   0  0  0  0  0  0  0  0  0  0  0  0
   41.0617  -17.2222   21.1099 F   0  0  0  0  0  0  0  0  0  0  0  0
   40.9379  -17.3241   23.4908 C   0  0  0  0  0  0  0  0  0  0  0  0
   40.2528  -17.7513   24.6088 C   0  0  0  0  0  0  0  0  0  0  0  0
   40.7309  -17.4676   25.8479 F   0  0  0  0  0  0  0  0  0  0  0  0
 23 24  1  0  0  0
 24 25  1  0  0  0
 25 26  1  0  0  0
 26 27  2  0  0  0
 27 28  1  0  0  0
 28 22  1  0  0  0
 22  1  1  0  0  0
  1  2  1  0  0  0
  2  3  2  0  0  0
  2  4  1  0  0  0
  4  5  2  0  0  0
  5  9  1  0  0  0
  9 11  1  0  0  0
 11 12  2  0  0  0
 12 13  1  0  0  0
 13 14  2  0  0  0
 14 15  1  0  0  0
 15 16  1  0  0  0
 15 17  1  0  0  0
 17 18  2  0  0  0
 18 19  1  0  0  0
 19 20  2  0  0  0
 20 21  1  0  0  0
  5  6  1  0  0  0
  6 30  1  0  0  0
 30 31  1  0  0  0
 31 32  2  0  0  0
 32 33  1  0  0  0
 33 34  1  0  0  0
 33 35  2  0  0  0
 35 36  1  0  0  0
 35 37  1  0  0  0
 37 38  2  0  0  0
 38 39  1  0  0  0
  6  7  1  0  0  0
  7  8  2  0  0  0
 28 24  2  0  0  0
  7  1  1  0  0  0
 20 11  1  0  0  0
 38 31  1  0  0  0
 18 13  1  0  0  0
 25 29  1  0  0  0
  9 10  1  0  0  0
M  END
> <minimizedAffinity>
-6.69024

> <minimizedRMSD>
1.89346

$$$$



 39 43  0  0  0  0  0  0  0  0999 V2000
   35.0625  -16.4064   23.3560 N   0  0  0  0  0  0  0  0  0  0  0  0
   34.4189  -17.5345   23.0832 C   0  0  0  0  0  0  0  0  0  0  0  0
   33.2364  -17.5380   22.4351 O   0  0  0  0  0  0  0  0  0  0  0  0
   34.9198  -18.6974   23.5084 N   0  0  0  0  0  0  0  0  0  0  0  0
   36.0588  -18.7120   24.1445 C   0  0  0  0  0  0  0  0  0  0  0  0
   36.7162  -17.5847   24.4109 N   0  0  0  0  0  0  0  0  0  0  0  0
   36.2140  -16.4188   24.0053 C   0  0  0  0  0  0  0  0  0  0  0  0
   36.7878  -15.4031   24.2524 O   0  0  0  0  0  0  0  0  0  0  0  0
   36.5705  -20.0019   24.5414 N   0  0  0  0  0  0  0  0  0  0  0  0
   37.4135  -20.0778   25.0442 H   0  0  0  0  0  0  0  0  0  0  0  0
   35.8093  -21.1856   24.1796 C   0  0  0  0  0  0  0  0  0  0  0  0
   34.9653  -21.7427   25.1483 C   0  0  0  0  0  0  0  0  0  0  0  0
   34.1986  -22.8850   24.8343 C   0  0  0  0  0  0  0  0  0  0  0  0
   33.2544  -23.6886   25.5546 C   0  0  0  0  0  0  0  0  0  0  0  0
   32.8523  -24.6420   24.7378 N   0  0  0  0  0  0  0  0  0  0  0  0
   31.8940  -25.6754   25.0651 C   0  0  0  0  0  0  0  0  0  0  0  0
   33.4479  -24.5220   23.5520 N   0  0  0  0  0  0  0  0  0  0  0  0
   34.2808  -23.4730   23.5743 C   0  0  0  0  0  0  0  0  0  0  0  0
   35.1289  -22.9166   22.5895 C   0  0  0  0  0  0  0  0  0  0  0  0
   35.8811  -21.7925   22.9009 C   0  0  0  0  0  0  0  0  0  0  0  0
   36.9348  -21.1269   21.6356 Cl  0  0  0  0  0  0  0  0  0  0  0  0
   34.5219  -15.1695   22.8300 C   0  0  0  0  0  0  0  0  0  0  0  0
   33.7158  -16.1102   25.9231 C   0  0  0  0  0  0  0  0  0  0  0  0
   33.4877  -14.8380   25.1972 C   0  0  0  0  0  0  0  0  0  0  0  0
   32.8530  -13.7785   25.7865 N   0  0  0  0  0  0  0  0  0  0  0  0
   32.7319  -12.7104   24.9849 N   0  0  0  0  0  0  0  0  0  0  0  0
   33.3098  -13.1020   23.8488 C   0  0  0  0  0  0  0  0  0  0  0  0
   33.8139  -14.4234   23.9167 C   0  0  0  0  0  0  0  0  0  0  0  0
   32.5170  -13.7985   26.7116 H   0  0  0  0  0  0  0  0  0  0  0  0
   37.9789  -17.6071   25.1330 C   0  0  0  0  0  0  0  0  0  0  0  0
   39.1481  -17.6981   24.1568 C   0  0  0  0  0  0  0  0  0  0  0  0
   38.9407  -17.9378   22.7934 C   0  0  0  0  0  0  0  0  0  0  0  0
   40.0340  -17.9925   21.9455 C   0  0  0  0  0  0  0  0  0  0  0  0
   39.9093  -18.2202   20.6056 F   0  0  0  0  0  0  0  0  0  0  0  0
   41.3079  -17.8358   22.4469 C   0  0  0  0  0  0  0  0  0  0  0  0
   42.3406  -17.9063   21.5725 F   0  0  0  0  0  0  0  0  0  0  0  0
   41.5219  -17.6039   23.7935 C   0  0  0  0  0  0  0  0  0  0  0  0
   40.4356  -17.5403   24.6406 C   0  0  0  0  0  0  0  0  0  0  0  0
   40.6206  -17.3075   25.9658 F   0  0  0  0  0  0  0  0  0  0  0  0
 23 24  1  0  0  0
 24 25  1  0  0  0
 25 26  1  0  0  0
 26 27  2  0  0  0
 27 28  1  0  0  0
 28 22  1  0  0  0
 22  1  1  0  0  0
  1  2  1  0  0  0
  2  3  2  0  0  0
  2  4  1  0  0  0
  4  5  2  0  0  0
  5  9  1  0  0  0
  9 11  1  0  0  0
 11 12  2  0  0  0
 12 13  1  0  0  0
 13 14  2  0  0  0
 14 15  1  0  0  0
 15 16  1  0  0  0
 15 17  1  0  0  0
 17 18  2  0  0  0
 18 19  1  0  0  0
 19 20  2  0  0  0
 20 21  1  0  0  0
  5  6  1  0  0  0
  6 30  1  0  0  0
 30 31  1  0  0  0
 31 32  2  0  0  0
 32 33  1  0  0  0
 33 34  1  0  0  0
 33 35  2  0  0  0
 35 36  1  0  0  0
 35 37  1  0  0  0
 37 38  2  0  0  0
 38 39  1  0  0  0
  6  7  1  0  0  0
  7  8  2  0  0  0
 28 24  2  0  0  0
  7  1  1  0  0  0
 20 11  1  0  0  0
 38 31  1  0  0  0
 18 13  1  0  0  0
 25 29  1  0  0  0
  9 10  1  0  0  0
M  END
> <minimizedAffinity>
-10.71037

> <minimizedRMSD>
0.79678

$$$$



 39 43  0  0  0  0  0  0  0  0999 V2000
   35.7763  -17.0459   25.5036 N   0  0  0  0  0  0  0  0  0  0  0  0
   34.9697  -18.0129   25.0843 C   0  0  0  0  0  0  0  0  0  0  0  0
   33.6359  -17.8354   24.9953 O   0  0  0  0  0  0  0  0  0  0  0  0
   35.4768  -19.2147   24.7977 N   0  0  0  0  0  0  0  0  0  0  0  0
   36.7641  -19.4068   24.8868 C   0  0  0  0  0  0  0  0  0  0  0  0
   37.5810  -18.4369   25.2946 N   0  0  0  0  0  0  0  0  0  0  0  0
   37.0803  -17.2399   25.5997 C   0  0  0  0  0  0  0  0  0  0  0  0
   37.8018  -16.3705   25.9805 O   0  0  0  0  0  0  0  0  0  0  0  0
   37.2581  -20.7131   24.5225 N   0  0  0  0  0  0  0  0  0  0  0  0
   38.2243  -20.9017   24.5082 H   0  0  0  0  0  0  0  0  0  0  0  0
   36.2925  -21.7427   24.1774 C   0  0  0  0  0  0  0  0  0  0  0  0
   35.5932  -22.3608   25.2215 C   0  0  0  0  0  0  0  0  0  0  0  0
   34.6372  -23.3567   24.9294 C   0  0  0  0  0  0  0  0  0  0  0  0
   33.7590  -24.1675   25.7216 C   0  0  0  0  0  0  0  0  0  0  0  0
   33.0815  -24.9339   24.8900 N   0  0  0  0  0  0  0  0  0  0  0  0
   32.0814  -25.9062   25.2741 C   0  0  0  0  0  0  0  0  0  0  0  0
   33.4393  -24.6859   23.6307 N   0  0  0  0  0  0  0  0  0  0  0  0
   34.3894  -23.7415   23.6138 C   0  0  0  0  0  0  0  0  0  0  0  0
   35.0894  -23.1219   22.5533 C   0  0  0  0  0  0  0  0  0  0  0  0
   36.0284  -22.1419   22.8435 C   0  0  0  0  0  0  0  0  0  0  0  0
   36.8865  -21.3906   21.4820 Cl  0  0  0  0  0  0  0  0  0  0  0  0
   35.2016  -15.7389   25.7496 C   0  0  0  0  0  0  0  0  0  0  0  0
   32.8325  -13.4581   25.1736 C   0  0  0  0  0  0  0  0  0  0  0  0
   33.7213  -14.2022   24.2507 C   0  0  0  0  0  0  0  0  0  0  0  0
   33.6731  -14.0083   22.8964 N   0  0  0  0  0  0  0  0  0  0  0  0
   34.5354  -14.7722   22.2131 N   0  0  0  0  0  0  0  0  0  0  0  0
   35.1727  -15.4582   23.1621 C   0  0  0  0  0  0  0  0  0  0  0  0
   34.7095  -15.1497   24.4645 C   0  0  0  0  0  0  0  0  0  0  0  0
   33.0623  -13.3677   22.4654 H   0  0  0  0  0  0  0  0  0  0  0  0
   39.0140  -18.6621   25.4054 C   0  0  0  0  0  0  0  0  0  0  0  0
   39.7193  -18.2423   24.1192 C   0  0  0  0  0  0  0  0  0  0  0  0
   39.1349  -18.4571   22.8654 C   0  0  0  0  0  0  0  0  0  0  0  0
   39.8073  -18.0406   21.7290 C   0  0  0  0  0  0  0  0  0  0  0  0
   39.2995  -18.2143   20.4742 F   0  0  0  0  0  0  0  0  0  0  0  0
   41.0451  -17.4445   21.8360 C   0  0  0  0  0  0  0  0  0  0  0  0
   41.6605  -17.0639   20.6904 F   0  0  0  0  0  0  0  0  0  0  0  0
   41.6319  -17.2335   23.0704 C   0  0  0  0  0  0  0  0  0  0  0  0
   40.9622  -17.6391   24.2058 C   0  0  0  0  0  0  0  0  0  0  0  0
   41.5159  -17.4368   25.4294 F   0  0  0  0  0  0  0  0  0  0  0  0
 23 24  1  0  0  0
 24 25  1  0  0  0
 25 26  1  0  0  0
 26 27  2  0  0  0
 27 28  1  0  0  0
 28 22  1  0  0  0
 22  1  1  0  0  0
  1  2  1  0  0  0
  2  3  2  0  0  0
  2  4  1  0  0  0
  4  5  2  0  0  0
  5  9  1  0  0  0
  9 11  1  0  0  0
 11 12  2  0  0  0
 12 13  1  0  0  0
 13 14  2  0  0  0
 14 15  1  0  0  0
 15 16  1  0  0  0
 15 17  1  0  0  0
 17 18  2  0  0  0
 18 19  1  0  0  0
 19 20  2  0  0  0
 20 21  1  0  0  0
  5  6  1  0  0  0
  6 30  1  0  0  0
 30 31  1  0  0  0
 31 32  2  0  0  0
 32 33  1  0  0  0
 33 34  1  0  0  0
 33 35  2  0  0  0
 35 36  1  0  0  0
 35 37  1  0  0  0
 37 38  2  0  0  0
 38 39  1  0  0  0
  6  7  1  0  0  0
  7  8  2  0  0  0
 28 24  2  0  0  0
  7  1  1  0  0  0
 20 11  1  0  0  0
 38 31  1  0  0  0
 18 13  1  0  0  0
 25 29  1  0  0  0
  9 10  1  0  0  0
M  END
> <minimizedAffinity>
-8.88916

> <minimizedRMSD>
2.04287

$$$$



 39 43  0  0  0  0  0  0  0  0999 V2000
   35.0625  -16.4064   23.3560 N   0  0  0  0  0  0  0  0  0  0  0  0
   34.4189  -17.5345   23.0832 C   0  0  0  0  0  0  0  0  0  0  0  0
   33.2364  -17.5380   22.4351 O   0  0  0  0  0  0  0  0  0  0  0  0
   34.9198  -18.6974   23.5084 N   0  0  0  0  0  0  0  0  0  0  0  0
   36.0588  -18.7120   24.1445 C   0  0  0  0  0  0  0  0  0  0  0  0
   36.7162  -17.5847   24.4109 N   0  0  0  0  0  0  0  0  0  0  0  0
   36.2140  -16.4188   24.0053 C   0  0  0  0  0  0  0  0  0  0  0  0
   36.7878  -15.4031   24.2524 O   0  0  0  0  0  0  0  0  0  0  0  0
   36.5705  -20.0019   24.5414 N   0  0  0  0  0  0  0  0  0  0  0  0
   37.4135  -20.0778   25.0442 H   0  0  0  0  0  0  0  0  0  0  0  0
   35.8093  -21.1856   24.1796 C   0  0  0  0  0  0  0  0  0  0  0  0
   34.9653  -21.7427   25.1483 C   0  0  0  0  0  0  0  0  0  0  0  0
   34.1986  -22.8850   24.8343 C   0  0  0  0  0  0  0  0  0  0  0  0
   33.2544  -23.6886   25.5546 C   0  0  0  0  0  0  0  0  0  0  0  0
   32.8523  -24.6420   24.7378 N   0  0  0  0  0  0  0  0  0  0  0  0
   31.8940  -25.6754   25.0651 C   0  0  0  0  0  0  0  0  0  0  0  0
   33.4479  -24.5220   23.5520 N   0  0  0  0  0  0  0  0  0  0  0  0
   34.2808  -23.4730   23.5743 C   0  0  0  0  0  0  0  0  0  0  0  0
   35.1289  -22.9166   22.5895 C   0  0  0  0  0  0  0  0  0  0  0  0
   35.8811  -21.7925   22.9009 C   0  0  0  0  0  0  0  0  0  0  0  0
   36.9348  -21.1269   21.6356 Cl  0  0  0  0  0  0  0  0  0  0  0  0
   34.5219  -15.1695   22.8300 C   0  0  0  0  0  0  0  0  0  0  0  0
   33.7158  -16.1102   25.9231 C   0  0  0  0  0  0  0  0  0  0  0  0
   33.4877  -14.8380   25.1972 C   0  0  0  0  0  0  0  0  0  0  0  0
   32.8530  -13.7785   25.7865 N   0  0  0  0  0  0  0  0  0  0  0  0
   32.7319  -12.7104   24.9849 N   0  0  0  0  0  0  0  0  0  0  0  0
   33.3098  -13.1020   23.8488 C   0  0  0  0  0  0  0  0  0  0  0  0
   33.8139  -14.4234   23.9167 C   0  0  0  0  0  0  0  0  0  0  0  0
   32.5170  -13.7985   26.7116 H   0  0  0  0  0  0  0  0  0  0  0  0
   37.9789  -17.6071   25.1330 C   0  0  0  0  0  0  0  0  0  0  0  0
   39.1481  -17.6981   24.1568 C   0  0  0  0  0  0  0  0  0  0  0  0
   38.9407  -17.9378   22.7934 C   0  0  0  0  0  0  0  0  0  0  0  0
   40.0340  -17.9925   21.9455 C   0  0  0  0  0  0  0  0  0  0  0  0
   39.9093  -18.2202   20.6056 F   0  0  0  0  0  0  0  0  0  0  0  0
   41.3079  -17.8358   22.4469 C   0  0  0  0  0  0  0  0  0  0  0  0
   42.3406  -17.9063   21.5725 F   0  0  0  0  0  0  0  0  0  0  0  0
   41.5219  -17.6039   23.7935 C   0  0  0  0  0  0  0  0  0  0  0  0
   40.4356  -17.5403   24.6406 C   0  0  0  0  0  0  0  0  0  0  0  0
   40.6206  -17.3075   25.9658 F   0  0  0  0  0  0  0  0  0  0  0  0
 23 24  1  0  0  0
 24 25  1  0  0  0
 25 26  1  0  0  0
 26 27  2  0  0  0
 27 28  1  0  0  0
 28 22  1  0  0  0
 22  1  1  0  0  0
  1  2  1  0  0  0
  2  3  2  0  0  0
  2  4  1  0  0  0
  4  5  2  0  0  0
  5  9  1  0  0  0
  9 11  1  0  0  0
 11 12  2  0  0  0
 12 13  1  0  0  0
 13 14  2  0  0  0
 14 15  1  0  0  0
 15 16  1  0  0  0
 15 17  1  0  0  0
 17 18  2  0  0  0
 18 19  1  0  0  0
 19 20  2  0  0  0
 20 21  1  0  0  0
  5  6  1  0  0  0
  6 30  1  0  0  0
 30 31  1  0  0  0
 31 32  2  0  0  0
 32 33  1  0  0  0
 33 34  1  0  0  0
 33 35  2  0  0  0
 35 36  1  0  0  0
 35 37  1  0  0  0
 37 38  2  0  0  0
 38 39  1  0  0  0
  6  7  1  0  0  0
  7  8  2  0  0  0
 28 24  2  0  0  0
  7  1  1  0  0  0
 20 11  1  0  0  0
 38 31  1  0  0  0
 18 13  1  0  0  0
 25 29  1  0  0  0
  9 10  1  0  0  0
M  END
> <minimizedAffinity>
-10.71037

> <minimizedRMSD>
0.79678

$$$$



 39 43  0  0  0  0  0  0  0  0999 V2000
   35.7763  -17.0459   25.5036 N   0  0  0  0  0  0  0  0  0  0  0  0
   34.9697  -18.0129   25.0843 C   0  0  0  0  0  0  0  0  0  0  0  0
   33.6359  -17.8354   24.9953 O   0  0  0  0  0  0  0  0  0  0  0  0
   35.4768  -19.2147   24.7977 N   0  0  0  0  0  0  0  0  0  0  0  0
   36.7641  -19.4068   24.8868 C   0  0  0  0  0  0  0  0  0  0  0  0
   37.5810  -18.4369   25.2946 N   0  0  0  0  0  0  0  0  0  0  0  0
   37.0803  -17.2399   25.5997 C   0  0  0  0  0  0  0  0  0  0  0  0
   37.8018  -16.3705   25.9805 O   0  0  0  0  0  0  0  0  0  0  0  0
   37.2581  -20.7131   24.5225 N   0  0  0  0  0  0  0  0  0  0  0  0
   38.2243  -20.9017   24.5082 H   0  0  0  0  0  0  0  0  0  0  0  0
   36.2925  -21.7427   24.1774 C   0  0  0  0  0  0  0  0  0  0  0  0
   35.5932  -22.3608   25.2215 C   0  0  0  0  0  0  0  0  0  0  0  0
   34.6372  -23.3567   24.9294 C   0  0  0  0  0  0  0  0  0  0  0  0
   33.7590  -24.1675   25.7216 C   0  0  0  0  0  0  0  0  0  0  0  0
   33.0815  -24.9339   24.8900 N   0  0  0  0  0  0  0  0  0  0  0  0
   32.0814  -25.9062   25.2741 C   0  0  0  0  0  0  0  0  0  0  0  0
   33.4393  -24.6859   23.6307 N   0  0  0  0  0  0  0  0  0  0  0  0
   34.3894  -23.7415   23.6138 C   0  0  0  0  0  0  0  0  0  0  0  0
   35.0894  -23.1219   22.5533 C   0  0  0  0  0  0  0  0  0  0  0  0
   36.0284  -22.1419   22.8435 C   0  0  0  0  0  0  0  0  0  0  0  0
   36.8865  -21.3906   21.4820 Cl  0  0  0  0  0  0  0  0  0  0  0  0
   35.2016  -15.7389   25.7496 C   0  0  0  0  0  0  0  0  0  0  0  0
   32.8325  -13.4581   25.1736 C   0  0  0  0  0  0  0  0  0  0  0  0
   33.7213  -14.2022   24.2507 C   0  0  0  0  0  0  0  0  0  0  0  0
   33.6731  -14.0083   22.8964 N   0  0  0  0  0  0  0  0  0  0  0  0
   34.5354  -14.7722   22.2131 N   0  0  0  0  0  0  0  0  0  0  0  0
   35.1727  -15.4582   23.1621 C   0  0  0  0  0  0  0  0  0  0  0  0
   34.7095  -15.1497   24.4645 C   0  0  0  0  0  0  0  0  0  0  0  0
   33.0623  -13.3677   22.4654 H   0  0  0  0  0  0  0  0  0  0  0  0
   39.0140  -18.6621   25.4054 C   0  0  0  0  0  0  0  0  0  0  0  0
   39.7193  -18.2423   24.1192 C   0  0  0  0  0  0  0  0  0  0  0  0
   39.1349  -18.4571   22.8654 C   0  0  0  0  0  0  0  0  0  0  0  0
   39.8073  -18.0406   21.7290 C   0  0  0  0  0  0  0  0  0  0  0  0
   39.2995  -18.2143   20.4742 F   0  0  0  0  0  0  0  0  0  0  0  0
   41.0451  -17.4445   21.8360 C   0  0  0  0  0  0  0  0  0  0  0  0
   41.6605  -17.0639   20.6904 F   0  0  0  0  0  0  0  0  0  0  0  0
   41.6319  -17.2335   23.0704 C   0  0  0  0  0  0  0  0  0  0  0  0
   40.9622  -17.6391   24.2058 C   0  0  0  0  0  0  0  0  0  0  0  0
   41.5159  -17.4368   25.4294 F   0  0  0  0  0  0  0  0  0  0  0  0
 23 24  1  0  0  0
 24 25  1  0  0  0
 25 26  1  0  0  0
 26 27  2  0  0  0
 27 28  1  0  0  0
 28 22  1  0  0  0
 22  1  1  0  0  0
  1  2  1  0  0  0
  2  3  2  0  0  0
  2  4  1  0  0  0
  4  5  2  0  0  0
  5  9  1  0  0  0
  9 11  1  0  0  0
 11 12  2  0  0  0
 12 13  1  0  0  0
 13 14  2  0  0  0
 14 15  1  0  0  0
 15 16  1  0  0  0
 15 17  1  0  0  0
 17 18  2  0  0  0
 18 19  1  0  0  0
 19 20  2  0  0  0
 20 21  1  0  0  0
  5  6  1  0  0  0
  6 30  1  0  0  0
 30 31  1  0  0  0
 31 32  2  0  0  0
 32 33  1  0  0  0
 33 34  1  0  0  0
 33 35  2  0  0  0
 35 36  1  0  0  0
 35 37  1  0  0  0
 37 38  2  0  0  0
 38 39  1  0  0  0
  6  7  1  0  0  0
  7  8  2  0  0  0
 28 24  2  0  0  0
  7  1  1  0  0  0
 20 11  1  0  0  0
 38 31  1  0  0  0
 18 13  1  0  0  0
 25 29  1  0  0  0
  9 10  1  0  0  0
M  END
> <minimizedAffinity>
-8.88916

> <minimizedRMSD>
2.04287

$$$$



 39 43  0  0  0  0  0  0  0  0999 V2000
   34.9868  -17.5518   25.5881 N   0  0  0  0  0  0  0  0  0  0  0  0
   34.2773  -18.6155   25.2332 C   0  0  0  0  0  0  0  0  0  0  0  0
   32.9387  -18.5571   25.0809 O   0  0  0  0  0  0  0  0  0  0  0  0
   34.8888  -19.7928   25.0783 N   0  0  0  0  0  0  0  0  0  0  0  0
   36.1823  -19.8697   25.2304 C   0  0  0  0  0  0  0  0  0  0  0  0
   36.9025  -18.8033   25.5740 N   0  0  0  0  0  0  0  0  0  0  0  0
   36.2970  -17.6288   25.7478 C   0  0  0  0  0  0  0  0  0  0  0  0
   36.9311  -16.6721   26.0708 O   0  0  0  0  0  0  0  0  0  0  0  0
   36.7921  -21.1588   25.0076 N   0  0  0  0  0  0  0  0  0  0  0  0
   37.7689  -21.2709   25.0590 H   0  0  0  0  0  0  0  0  0  0  0  0
   35.9274  -22.2867   24.7056 C   0  0  0  0  0  0  0  0  0  0  0  0
   35.3305  -22.9599   25.7787 C   0  0  0  0  0  0  0  0  0  0  0  0
   34.4734  -24.0527   25.5289 C   0  0  0  0  0  0  0  0  0  0  0  0
   33.7103  -24.9392   26.3583 C   0  0  0  0  0  0  0  0  0  0  0  0
   33.0887  -25.7820   25.5576 N   0  0  0  0  0  0  0  0  0  0  0  0
   32.2076  -26.8472   25.9848 C   0  0  0  0  0  0  0  0  0  0  0  0
   33.3773  -25.5149   24.2846 N   0  0  0  0  0  0  0  0  0  0  0  0
   34.2236  -24.4781   24.2263 C   0  0  0  0  0  0  0  0  0  0  0  0
   34.8206  -23.8035   23.1366 C   0  0  0  0  0  0  0  0  0  0  0  0
   35.6623  -22.7284   23.3853 C   0  0  0  0  0  0  0  0  0  0  0  0
   36.3929  -21.9105   21.9882 Cl  0  0  0  0  0  0  0  0  0  0  0  0
   34.3019  -16.2792   25.6904 C   0  0  0  0  0  0  0  0  0  0  0  0
   33.6305  -17.1548   22.5407 C   0  0  0  0  0  0  0  0  0  0  0  0
   34.1762  -15.9011   23.1132 C   0  0  0  0  0  0  0  0  0  0  0  0
   34.5212  -14.8397   22.3207 N   0  0  0  0  0  0  0  0  0  0  0  0
   34.9873  -13.7862   23.0063 N   0  0  0  0  0  0  0  0  0  0  0  0
   34.9567  -14.1961   24.2742 C   0  0  0  0  0  0  0  0  0  0  0  0
   34.4610  -15.5152   24.4125 C   0  0  0  0  0  0  0  0  0  0  0  0
   34.4350  -14.8490   21.3400 H   0  0  0  0  0  0  0  0  0  0  0  0
   38.3427  -18.8992   25.7558 C   0  0  0  0  0  0  0  0  0  0  0  0
   39.0691  -18.4592   24.4882 C   0  0  0  0  0  0  0  0  0  0  0  0
   38.5627  -18.7589   23.2181 C   0  0  0  0  0  0  0  0  0  0  0  0
   39.2499  -18.3205   22.0988 C   0  0  0  0  0  0  0  0  0  0  0  0
   38.8164  -18.5730   20.8295 F   0  0  0  0  0  0  0  0  0  0  0  0
   40.4279  -17.6197   22.2396 C   0  0  0  0  0  0  0  0  0  0  0  0
   41.0617  -17.2222   21.1099 F   0  0  0  0  0  0  0  0  0  0  0  0
   40.9379  -17.3241   23.4908 C   0  0  0  0  0  0  0  0  0  0  0  0
   40.2528  -17.7513   24.6088 C   0  0  0  0  0  0  0  0  0  0  0  0
   40.7309  -17.4676   25.8479 F   0  0  0  0  0  0  0  0  0  0  0  0
 23 24  1  0  0  0
 24 25  1  0  0  0
 25 26  1  0  0  0
 26 27  2  0  0  0
 27 28  1  0  0  0
 28 22  1  0  0  0
 22  1  1  0  0  0
  1  2  1  0  0  0
  2  3  2  0  0  0
  2  4  1  0  0  0
  4  5  2  0  0  0
  5  9  1  0  0  0
  9 11  1  0  0  0
 11 12  2  0  0  0
 12 13  1  0  0  0
 13 14  2  0  0  0
 14 15  1  0  0  0
 15 16  1  0  0  0
 15 17  1  0  0  0
 17 18  2  0  0  0
 18 19  1  0  0  0
 19 20  2  0  0  0
 20 21  1  0  0  0
  5  6  1  0  0  0
  6 30  1  0  0  0
 30 31  1  0  0  0
 31 32  2  0  0  0
 32 33  1  0  0  0
 33 34  1  0  0  0
 33 35  2  0  0  0
 35 36  1  0  0  0
 35 37  1  0  0  0
 37 38  2  0  0  0
 38 39  1  0  0  0
  6  7  1  0  0  0
  7  8  2  0  0  0
 28 24  2  0  0  0
  7  1  1  0  0  0
 20 11  1  0  0  0
 38 31  1  0  0  0
 18 13  1  0  0  0
 25 29  1  0  0  0
  9 10  1  0  0  0
M  END
> <minimizedAffinity>
-6.69024

> <minimizedRMSD>
1.89346

$$$$



 39 43  0  0  0  0  0  0  0  0999 V2000
   34.9868  -17.5518   25.5881 N   0  0  0  0  0  0  0  0  0  0  0  0
   34.2773  -18.6155   25.2332 C   0  0  0  0  0  0  0  0  0  0  0  0
   32.9387  -18.5571   25.0809 O   0  0  0  0  0  0  0  0  0  0  0  0
   34.8888  -19.7928   25.0783 N   0  0  0  0  0  0  0  0  0  0  0  0
   36.1823  -19.8697   25.2304 C   0  0  0  0  0  0  0  0  0  0  0  0
   36.9025  -18.8033   25.5740 N   0  0  0  0  0  0  0  0  0  0  0  0
   36.2970  -17.6288   25.7478 C   0  0  0  0  0  0  0  0  0  0  0  0
   36.9311  -16.6721   26.0708 O   0  0  0  0  0  0  0  0  0  0  0  0
   36.7921  -21.1588   25.0076 N   0  0  0  0  0  0  0  0  0  0  0  0
   37.7689  -21.2709   25.0590 H   0  0  0  0  0  0  0  0  0  0  0  0
   35.9274  -22.2867   24.7056 C   0  0  0  0  0  0  0  0  0  0  0  0
   35.3305  -22.9599   25.7787 C   0  0  0  0  0  0  0  0  0  0  0  0
   34.4734  -24.0527   25.5289 C   0  0  0  0  0  0  0  0  0  0  0  0
   33.7103  -24.9392   26.3583 C   0  0  0  0  0  0  0  0  0  0  0  0
   33.0887  -25.7820   25.5576 N   0  0  0  0  0  0  0  0  0  0  0  0
   32.2076  -26.8472   25.9848 C   0  0  0  0  0  0  0  0  0  0  0  0
   33.3773  -25.5149   24.2846 N   0  0  0  0  0  0  0  0  0  0  0  0
   34.2236  -24.4781   24.2263 C   0  0  0  0  0  0  0  0  0  0  0  0
   34.8206  -23.8035   23.1366 C   0  0  0  0  0  0  0  0  0  0  0  0
   35.6623  -22.7284   23.3853 C   0  0  0  0  0  0  0  0  0  0  0  0
   36.3929  -21.9105   21.9882 Cl  0  0  0  0  0  0  0  0  0  0  0  0
   34.3019  -16.2792   25.6904 C   0  0  0  0  0  0  0  0  0  0  0  0
   33.6305  -17.1548   22.5407 C   0  0  0  0  0  0  0  0  0  0  0  0
   34.1762  -15.9011   23.1132 C   0  0  0  0  0  0  0  0  0  0  0  0
   34.5212  -14.8397   22.3207 N   0  0  0  0  0  0  0  0  0  0  0  0
   34.9873  -13.7862   23.0063 N   0  0  0  0  0  0  0  0  0  0  0  0
   34.9567  -14.1961   24.2742 C   0  0  0  0  0  0  0  0  0  0  0  0
   34.4610  -15.5152   24.4125 C   0  0  0  0  0  0  0  0  0  0  0  0
   34.4350  -14.8490   21.3400 H   0  0  0  0  0  0  0  0  0  0  0  0
   38.3427  -18.8992   25.7558 C   0  0  0  0  0  0  0  0  0  0  0  0
   39.0691  -18.4592   24.4882 C   0  0  0  0  0  0  0  0  0  0  0  0
   38.5627  -18.7589   23.2181 C   0  0  0  0  0  0  0  0  0  0  0  0
   39.2499  -18.3205   22.0988 C   0  0  0  0  0  0  0  0  0  0  0  0
   38.8164  -18.5730   20.8295 F   0  0  0  0  0  0  0  0  0  0  0  0
   40.4279  -17.6197   22.2396 C   0  0  0  0  0  0  0  0  0  0  0  0
   41.0617  -17.2222   21.1099 F   0  0  0  0  0  0  0  0  0  0  0  0
   40.9379  -17.3241   23.4908 C   0  0  0  0  0  0  0  0  0  0  0  0
   40.2528  -17.7513   24.6088 C   0  0  0  0  0  0  0  0  0  0  0  0
   40.7309  -17.4676   25.8479 F   0  0  0  0  0  0  0  0  0  0  0  0
 23 24  1  0  0  0
 24 25  1  0  0  0
 25 26  1  0  0  0
 26 27  2  0  0  0
 27 28  1  0  0  0
 28 22  1  0  0  0
 22  1  1  0  0  0
  1  2  1  0  0  0
  2  3  2  0  0  0
  2  4  1  0  0  0
  4  5  2  0  0  0
  5  9  1  0  0  0
  9 11  1  0  0  0
 11 12  2  0  0  0
 12 13  1  0  0  0
 13 14  2  0  0  0
 14 15  1  0  0  0
 15 16  1  0  0  0
 15 17  1  0  0  0
 17 18  2  0  0  0
 18 19  1  0  0  0
 19 20  2  0  0  0
 20 21  1  0  0  0
  5  6  1  0  0  0
  6 30  1  0  0  0
 30 31  1  0  0  0
 31 32  2  0  0  0
 32 33  1  0  0  0
 33 34  1  0  0  0
 33 35  2  0  0  0
 35 36  1  0  0  0
 35 37  1  0  0  0
 37 38  2  0  0  0
 38 39  1  0  0  0
  6  7  1  0  0  0
  7  8  2  0  0  0
 28 24  2  0  0  0
  7  1  1  0  0  0
 20 11  1  0  0  0
 38 31  1  0  0  0
 18 13  1  0  0  0
 25 29  1  0  0  0
  9 10  1  0  0  0
M  END
> <minimizedAffinity>
-6.69024

> <minimizedRMSD>
1.89346

$$$$



 39 43  0  0  0  0  0  0  0  0999 V2000
   34.9868  -17.5518   25.5881 N   0  0  0  0  0  0  0  0  0  0  0  0
   34.2773  -18.6155   25.2332 C   0  0  0  0  0  0  0  0  0  0  0  0
   32.9387  -18.5571   25.0809 O   0  0  0  0  0  0  0  0  0  0  0  0
   34.8888  -19.7928   25.0783 N   0  0  0  0  0  0  0  0  0  0  0  0
   36.1823  -19.8697   25.2304 C   0  0  0  0  0  0  0  0  0  0  0  0
   36.9025  -18.8033   25.5740 N   0  0  0  0  0  0  0  0  0  0  0  0
   36.2970  -17.6288   25.7478 C   0  0  0  0  0  0  0  0  0  0  0  0
   36.9311  -16.6721   26.0708 O   0  0  0  0  0  0  0  0  0  0  0  0
   36.7921  -21.1588   25.0076 N   0  0  0  0  0  0  0  0  0  0  0  0
   37.7689  -21.2709   25.0590 H   0  0  0  0  0  0  0  0  0  0  0  0
   35.9274  -22.2867   24.7056 C   0  0  0  0  0  0  0  0  0  0  0  0
   35.3305  -22.9599   25.7787 C   0  0  0  0  0  0  0  0  0  0  0  0
   34.4734  -24.0527   25.5289 C   0  0  0  0  0  0  0  0  0  0  0  0
   33.7103  -24.9392   26.3583 C   0  0  0  0  0  0  0  0  0  0  0  0
   33.0887  -25.7820   25.5576 N   0  0  0  0  0  0  0  0  0  0  0  0
   32.2076  -26.8472   25.9848 C   0  0  0  0  0  0  0  0  0  0  0  0
   33.3773  -25.5149   24.2846 N   0  0  0  0  0  0  0  0  0  0  0  0
   34.2236  -24.4781   24.2263 C   0  0  0  0  0  0  0  0  0  0  0  0
   34.8206  -23.8035   23.1366 C   0  0  0  0  0  0  0  0  0  0  0  0
   35.6623  -22.7284   23.3853 C   0  0  0  0  0  0  0  0  0  0  0  0
   36.3929  -21.9105   21.9882 Cl  0  0  0  0  0  0  0  0  0  0  0  0
   34.3019  -16.2792   25.6904 C   0  0  0  0  0  0  0  0  0  0  0  0
   33.6305  -17.1548   22.5407 C   0  0  0  0  0  0  0  0  0  0  0  0
   34.1762  -15.9011   23.1132 C   0  0  0  0  0  0  0  0  0  0  0  0
   34.5212  -14.8397   22.3207 N   0  0  0  0  0  0  0  0  0  0  0  0
   34.9873  -13.7862   23.0063 N   0  0  0  0  0  0  0  0  0  0  0  0
   34.9567  -14.1961   24.2742 C   0  0  0  0  0  0  0  0  0  0  0  0
   34.4610  -15.5152   24.4125 C   0  0  0  0  0  0  0  0  0  0  0  0
   34.4350  -14.8490   21.3400 H   0  0  0  0  0  0  0  0  0  0  0  0
   38.3427  -18.8992   25.7558 C   0  0  0  0  0  0  0  0  0  0  0  0
   39.0691  -18.4592   24.4882 C   0  0  0  0  0  0  0  0  0  0  0  0
   38.5627  -18.7589   23.2181 C   0  0  0  0  0  0  0  0  0  0  0  0
   39.2499  -18.3205   22.0988 C   0  0  0  0  0  0  0  0  0  0  0  0
   38.8164  -18.5730   20.8295 F   0  0  0  0  0  0  0  0  0  0  0  0
   40.4279  -17.6197   22.2396 C   0  0  0  0  0  0  0  0  0  0  0  0
   41.0617  -17.2222   21.1099 F   0  0  0  0  0  0  0  0  0  0  0  0
   40.9379  -17.3241   23.4908 C   0  0  0  0  0  0  0  0  0  0  0  0
   40.2528  -17.7513   24.6088 C   0  0  0  0  0  0  0  0  0  0  0  0
   40.7309  -17.4676   25.8479 F   0  0  0  0  0  0  0  0  0  0  0  0
 23 24  1  0  0  0
 24 25  1  0  0  0
 25 26  1  0  0  0
 26 27  2  0  0  0
 27 28  1  0  0  0
 28 22  1  0  0  0
 22  1  1  0  0  0
  1  2  1  0  0  0
  2  3  2  0  0  0
  2  4  1  0  0  0
  4  5  2  0  0  0
  5  9  1  0  0  0
  9 11  1  0  0  0
 11 12  2  0  0  0
 12 13  1  0  0  0
 13 14  2  0  0  0
 14 15  1  0  0  0
 15 16  1  0  0  0
 15 17  1  0  0  0
 17 18  2  0  0  0
 18 19  1  0  0  0
 19 20  2  0  0  0
 20 21  1  0  0  0
  5  6  1  0  0  0
  6 30  1  0  0  0
 30 31  1  0  0  0
 31 32  2  0  0  0
 32 33  1  0  0  0
 33 34  1  0  0  0
 33 35  2  0  0  0
 35 36  1  0  0  0
 35 37  1  0  0  0
 37 38  2  0  0  0
 38 39  1  0  0  0
  6  7  1  0  0  0
  7  8  2  0  0  0
 28 24  2  0  0  0
  7  1  1  0  0  0
 20 11  1  0  0  0
 38 31  1  0  0  0
 18 13  1  0  0  0
 25 29  1  0  0  0
  9 10  1  0  0  0
M  END
> <minimizedAffinity>
-6.69024

> <minimizedRMSD>
1.89346

$$$$



 39 43  0  0  0  0  0  0  0  0999 V2000
   34.9679  -16.3657   23.5118 N   0  0  0  0  0  0  0  0  0  0  0  0
   34.3553  -17.4955   23.1804 C   0  0  0  0  0  0  0  0  0  0  0  0
   33.1901  -17.4981   22.5017 O   0  0  0  0  0  0  0  0  0  0  0  0
   34.8694  -18.6631   23.5753 N   0  0  0  0  0  0  0  0  0  0  0  0
   35.9917  -18.6789   24.2403 C   0  0  0  0  0  0  0  0  0  0  0  0
   36.6183  -17.5495   24.5656 N   0  0  0  0  0  0  0  0  0  0  0  0
   36.1021  -16.3793   24.1904 C   0  0  0  0  0  0  0  0  0  0  0  0
   36.6481  -15.3626   24.4901 O   0  0  0  0  0  0  0  0  0  0  0  0
   36.5202  -19.9723   24.6025 N   0  0  0  0  0  0  0  0  0  0  0  0
   37.3704  -20.0512   25.0925 H   0  0  0  0  0  0  0  0  0  0  0  0
   35.7647  -21.1549   24.2251 C   0  0  0  0  0  0  0  0  0  0  0  0
   34.9213  -21.7270   25.1856 C   0  0  0  0  0  0  0  0  0  0  0  0
   34.1600  -22.8687   24.8565 C   0  0  0  0  0  0  0  0  0  0  0  0
   33.2179  -23.6848   25.5654 C   0  0  0  0  0  0  0  0  0  0  0  0
   32.8215  -24.6302   24.7366 N   0  0  0  0  0  0  0  0  0  0  0  0
   31.8670  -25.6715   25.0497 C   0  0  0  0  0  0  0  0  0  0  0  0
   33.4188  -24.4937   23.5535 N   0  0  0  0  0  0  0  0  0  0  0  0
   34.2472  -23.4414   23.5899 C   0  0  0  0  0  0  0  0  0  0  0  0
   35.0948  -22.8698   22.6134 C   0  0  0  0  0  0  0  0  0  0  0  0
   35.8416  -21.7463   22.9396 C   0  0  0  0  0  0  0  0  0  0  0  0
   36.8949  -21.0612   21.6843 Cl  0  0  0  0  0  0  0  0  0  0  0  0
   34.4149  -15.1211   23.0178 C   0  0  0  0  0  0  0  0  0  0  0  0
   33.4387  -11.9502   23.3041 C   0  0  0  0  0  0  0  0  0  0  0  0
   33.2508  -13.1151   24.2006 C   0  0  0  0  0  0  0  0  0  0  0  0
   32.5811  -13.0075   25.3890 N   0  0  0  0  0  0  0  0  0  0  0  0
   32.5087  -14.1581   26.0717 N   0  0  0  0  0  0  0  0  0  0  0  0
   33.1525  -15.0294   25.2938 C   0  0  0  0  0  0  0  0  0  0  0  0
   33.6492  -14.4386   24.1066 C   0  0  0  0  0  0  0  0  0  0  0  0
   32.1893  -12.1641   25.7120 H   0  0  0  0  0  0  0  0  0  0  0  0
   37.8622  -17.5736   25.3195 C   0  0  0  0  0  0  0  0  0  0  0  0
   39.0558  -17.6635   24.3731 C   0  0  0  0  0  0  0  0  0  0  0  0
   38.8863  -17.9481   23.0132 C   0  0  0  0  0  0  0  0  0  0  0  0
   40.0001  -17.9998   22.1922 C   0  0  0  0  0  0  0  0  0  0  0  0
   39.9124  -18.2695   20.8572 F   0  0  0  0  0  0  0  0  0  0  0  0
   41.2577  -17.7963   22.7175 C   0  0  0  0  0  0  0  0  0  0  0  0
   42.3120  -17.8661   21.8692 F   0  0  0  0  0  0  0  0  0  0  0  0
   41.4344  -17.5199   24.0610 C   0  0  0  0  0  0  0  0  0  0  0  0
   40.3273  -17.4590   24.8811 C   0  0  0  0  0  0  0  0  0  0  0  0
   40.4756  -17.1831   26.2026 F   0  0  0  0  0  0  0  0  0  0  0  0
 23 24  1  0  0  0
 24 25  1  0  0  0
 25 26  1  0  0  0
 26 27  2  0  0  0
 27 28  1  0  0  0
 28 22  1  0  0  0
 22  1  1  0  0  0
  1  2  1  0  0  0
  2  3  2  0  0  0
  2  4  1  0  0  0
  4  5  2  0  0  0
  5  9  1  0  0  0
  9 11  1  0  0  0
 11 12  2  0  0  0
 12 13  1  0  0  0
 13 14  2  0  0  0
 14 15  1  0  0  0
 15 16  1  0  0  0
 15 17  1  0  0  0
 17 18  2  0  0  0
 18 19  1  0  0  0
 19 20  2  0  0  0
 20 21  1  0  0  0
  5  6  1  0  0  0
  6 30  1  0  0  0
 30 31  1  0  0  0
 31 32  2  0  0  0
 32 33  1  0  0  0
 33 34  1  0  0  0
 33 35  2  0  0  0
 35 36  1  0  0  0
 35 37  1  0  0  0
 37 38  2  0  0  0
 38 39  1  0  0  0
  6  7  1  0  0  0
  7  8  2  0  0  0
 28 24  2  0  0  0
  7  1  1  0  0  0
 20 11  1  0  0  0
 38 31  1  0  0  0
 18 13  1  0  0  0
 25 29  1  0  0  0
  9 10  1  0  0  0
M  END
> <minimizedAffinity>
-10.55357

> <minimizedRMSD>
0.66641

$$$$



 39 43  0  0  0  0  0  0  0  0999 V2000
   35.7763  -17.0459   25.5036 N   0  0  0  0  0  0  0  0  0  0  0  0
   34.9697  -18.0129   25.0843 C   0  0  0  0  0  0  0  0  0  0  0  0
   33.6359  -17.8354   24.9953 O   0  0  0  0  0  0  0  0  0  0  0  0
   35.4768  -19.2147   24.7977 N   0  0  0  0  0  0  0  0  0  0  0  0
   36.7641  -19.4068   24.8868 C   0  0  0  0  0  0  0  0  0  0  0  0
   37.5810  -18.4369   25.2946 N   0  0  0  0  0  0  0  0  0  0  0  0
   37.0803  -17.2399   25.5997 C   0  0  0  0  0  0  0  0  0  0  0  0
   37.8018  -16.3705   25.9805 O   0  0  0  0  0  0  0  0  0  0  0  0
   37.2581  -20.7131   24.5225 N   0  0  0  0  0  0  0  0  0  0  0  0
   38.2243  -20.9017   24.5082 H   0  0  0  0  0  0  0  0  0  0  0  0
   36.2925  -21.7427   24.1774 C   0  0  0  0  0  0  0  0  0  0  0  0
   35.5932  -22.3608   25.2215 C   0  0  0  0  0  0  0  0  0  0  0  0
   34.6372  -23.3567   24.9294 C   0  0  0  0  0  0  0  0  0  0  0  0
   33.7590  -24.1675   25.7216 C   0  0  0  0  0  0  0  0  0  0  0  0
   33.0815  -24.9339   24.8900 N   0  0  0  0  0  0  0  0  0  0  0  0
   32.0814  -25.9062   25.2741 C   0  0  0  0  0  0  0  0  0  0  0  0
   33.4393  -24.6859   23.6307 N   0  0  0  0  0  0  0  0  0  0  0  0
   34.3894  -23.7415   23.6138 C   0  0  0  0  0  0  0  0  0  0  0  0
   35.0894  -23.1219   22.5533 C   0  0  0  0  0  0  0  0  0  0  0  0
   36.0284  -22.1419   22.8435 C   0  0  0  0  0  0  0  0  0  0  0  0
   36.8865  -21.3906   21.4820 Cl  0  0  0  0  0  0  0  0  0  0  0  0
   35.2016  -15.7389   25.7496 C   0  0  0  0  0  0  0  0  0  0  0  0
   32.8325  -13.4581   25.1736 C   0  0  0  0  0  0  0  0  0  0  0  0
   33.7213  -14.2022   24.2507 C   0  0  0  0  0  0  0  0  0  0  0  0
   33.6731  -14.0083   22.8964 N   0  0  0  0  0  0  0  0  0  0  0  0
   34.5354  -14.7722   22.2131 N   0  0  0  0  0  0  0  0  0  0  0  0
   35.1727  -15.4582   23.1621 C   0  0  0  0  0  0  0  0  0  0  0  0
   34.7095  -15.1497   24.4645 C   0  0  0  0  0  0  0  0  0  0  0  0
   33.0623  -13.3677   22.4654 H   0  0  0  0  0  0  0  0  0  0  0  0
   39.0140  -18.6621   25.4054 C   0  0  0  0  0  0  0  0  0  0  0  0
   39.7193  -18.2423   24.1192 C   0  0  0  0  0  0  0  0  0  0  0  0
   39.1349  -18.4571   22.8654 C   0  0  0  0  0  0  0  0  0  0  0  0
   39.8073  -18.0406   21.7290 C   0  0  0  0  0  0  0  0  0  0  0  0
   39.2995  -18.2143   20.4742 F   0  0  0  0  0  0  0  0  0  0  0  0
   41.0451  -17.4445   21.8360 C   0  0  0  0  0  0  0  0  0  0  0  0
   41.6605  -17.0639   20.6904 F   0  0  0  0  0  0  0  0  0  0  0  0
   41.6319  -17.2335   23.0704 C   0  0  0  0  0  0  0  0  0  0  0  0
   40.9622  -17.6391   24.2058 C   0  0  0  0  0  0  0  0  0  0  0  0
   41.5159  -17.4368   25.4294 F   0  0  0  0  0  0  0  0  0  0  0  0
 23 24  1  0  0  0
 24 25  1  0  0  0
 25 26  1  0  0  0
 26 27  2  0  0  0
 27 28  1  0  0  0
 28 22  1  0  0  0
 22  1  1  0  0  0
  1  2  1  0  0  0
  2  3  2  0  0  0
  2  4  1  0  0  0
  4  5  2  0  0  0
  5  9  1  0  0  0
  9 11  1  0  0  0
 11 12  2  0  0  0
 12 13  1  0  0  0
 13 14  2  0  0  0
 14 15  1  0  0  0
 15 16  1  0  0  0
 15 17  1  0  0  0
 17 18  2  0  0  0
 18 19  1  0  0  0
 19 20  2  0  0  0
 20 21  1  0  0  0
  5  6  1  0  0  0
  6 30  1  0  0  0
 30 31  1  0  0  0
 31 32  2  0  0  0
 32 33  1  0  0  0
 33 34  1  0  0  0
 33 35  2  0  0  0
 35 36  1  0  0  0
 35 37  1  0  0  0
 37 38  2  0  0  0
 38 39  1  0  0  0
  6  7  1  0  0  0
  7  8  2  0  0  0
 28 24  2  0  0  0
  7  1  1  0  0  0
 20 11  1  0  0  0
 38 31  1  0  0  0
 18 13  1  0  0  0
 25 29  1  0  0  0
  9 10  1  0  0  0
M  END
> <minimizedAffinity>
-8.88916

> <minimizedRMSD>
2.04287

$$$$



 39 43  0  0  0  0  0  0  0  0999 V2000
   34.9868  -17.5518   25.5881 N   0  0  0  0  0  0  0  0  0  0  0  0
   34.2773  -18.6155   25.2332 C   0  0  0  0  0  0  0  0  0  0  0  0
   32.9387  -18.5571   25.0809 O   0  0  0  0  0  0  0  0  0  0  0  0
   34.8888  -19.7928   25.0783 N   0  0  0  0  0  0  0  0  0  0  0  0
   36.1823  -19.8697   25.2304 C   0  0  0  0  0  0  0  0  0  0  0  0
   36.9025  -18.8033   25.5740 N   0  0  0  0  0  0  0  0  0  0  0  0
   36.2970  -17.6288   25.7478 C   0  0  0  0  0  0  0  0  0  0  0  0
   36.9311  -16.6721   26.0708 O   0  0  0  0  0  0  0  0  0  0  0  0
   36.7921  -21.1588   25.0076 N   0  0  0  0  0  0  0  0  0  0  0  0
   37.7689  -21.2709   25.0590 H   0  0  0  0  0  0  0  0  0  0  0  0
   35.9274  -22.2867   24.7056 C   0  0  0  0  0  0  0  0  0  0  0  0
   35.3305  -22.9599   25.7787 C   0  0  0  0  0  0  0  0  0  0  0  0
   34.4734  -24.0527   25.5289 C   0  0  0  0  0  0  0  0  0  0  0  0
   33.7103  -24.9392   26.3583 C   0  0  0  0  0  0  0  0  0  0  0  0
   33.0887  -25.7820   25.5576 N   0  0  0  0  0  0  0  0  0  0  0  0
   32.2076  -26.8472   25.9848 C   0  0  0  0  0  0  0  0  0  0  0  0
   33.3773  -25.5149   24.2846 N   0  0  0  0  0  0  0  0  0  0  0  0
   34.2236  -24.4781   24.2263 C   0  0  0  0  0  0  0  0  0  0  0  0
   34.8206  -23.8035   23.1366 C   0  0  0  0  0  0  0  0  0  0  0  0
   35.6623  -22.7284   23.3853 C   0  0  0  0  0  0  0  0  0  0  0  0
   36.3929  -21.9105   21.9882 Cl  0  0  0  0  0  0  0  0  0  0  0  0
   34.3019  -16.2792   25.6904 C   0  0  0  0  0  0  0  0  0  0  0  0
   33.6305  -17.1548   22.5407 C   0  0  0  0  0  0  0  0  0  0  0  0
   34.1762  -15.9011   23.1132 C   0  0  0  0  0  0  0  0  0  0  0  0
   34.5212  -14.8397   22.3207 N   0  0  0  0  0  0  0  0  0  0  0  0
   34.9873  -13.7862   23.0063 N   0  0  0  0  0  0  0  0  0  0  0  0
   34.9567  -14.1961   24.2742 C   0  0  0  0  0  0  0  0  0  0  0  0
   34.4610  -15.5152   24.4125 C   0  0  0  0  0  0  0  0  0  0  0  0
   34.4350  -14.8490   21.3400 H   0  0  0  0  0  0  0  0  0  0  0  0
   38.3427  -18.8992   25.7558 C   0  0  0  0  0  0  0  0  0  0  0  0
   39.0691  -18.4592   24.4882 C   0  0  0  0  0  0  0  0  0  0  0  0
   38.5627  -18.7589   23.2181 C   0  0  0  0  0  0  0  0  0  0  0  0
   39.2499  -18.3205   22.0988 C   0  0  0  0  0  0  0  0  0  0  0  0
   38.8164  -18.5730   20.8295 F   0  0  0  0  0  0  0  0  0  0  0  0
   40.4279  -17.6197   22.2396 C   0  0  0  0  0  0  0  0  0  0  0  0
   41.0617  -17.2222   21.1099 F   0  0  0  0  0  0  0  0  0  0  0  0
   40.9379  -17.3241   23.4908 C   0  0  0  0  0  0  0  0  0  0  0  0
   40.2528  -17.7513   24.6088 C   0  0  0  0  0  0  0  0  0  0  0  0
   40.7309  -17.4676   25.8479 F   0  0  0  0  0  0  0  0  0  0  0  0
 23 24  1  0  0  0
 24 25  1  0  0  0
 25 26  1  0  0  0
 26 27  2  0  0  0
 27 28  1  0  0  0
 28 22  1  0  0  0
 22  1  1  0  0  0
  1  2  1  0  0  0
  2  3  2  0  0  0
  2  4  1  0  0  0
  4  5  2  0  0  0
  5  9  1  0  0  0
  9 11  1  0  0  0
 11 12  2  0  0  0
 12 13  1  0  0  0
 13 14  2  0  0  0
 14 15  1  0  0  0
 15 16  1  0  0  0
 15 17  1  0  0  0
 17 18  2  0  0  0
 18 19  1  0  0  0
 19 20  2  0  0  0
 20 21  1  0  0  0
  5  6  1  0  0  0
  6 30  1  0  0  0
 30 31  1  0  0  0
 31 32  2  0  0  0
 32 33  1  0  0  0
 33 34  1  0  0  0
 33 35  2  0  0  0
 35 36  1  0  0  0
 35 37  1  0  0  0
 37 38  2  0  0  0
 38 39  1  0  0  0
  6  7  1  0  0  0
  7  8  2  0  0  0
 28 24  2  0  0  0
  7  1  1  0  0  0
 20 11  1  0  0  0
 38 31  1  0  0  0
 18 13  1  0  0  0
 25 29  1  0  0  0
  9 10  1  0  0  0
M  END
> <minimizedAffinity>
-6.69024

> <minimizedRMSD>
1.89346

$$$$



 39 43  0  0  0  0  0  0  0  0999 V2000
   34.9679  -16.3657   23.5118 N   0  0  0  0  0  0  0  0  0  0  0  0
   34.3553  -17.4955   23.1804 C   0  0  0  0  0  0  0  0  0  0  0  0
   33.1901  -17.4981   22.5017 O   0  0  0  0  0  0  0  0  0  0  0  0
   34.8694  -18.6631   23.5753 N   0  0  0  0  0  0  0  0  0  0  0  0
   35.9917  -18.6789   24.2403 C   0  0  0  0  0  0  0  0  0  0  0  0
   36.6183  -17.5495   24.5656 N   0  0  0  0  0  0  0  0  0  0  0  0
   36.1021  -16.3793   24.1904 C   0  0  0  0  0  0  0  0  0  0  0  0
   36.6481  -15.3626   24.4901 O   0  0  0  0  0  0  0  0  0  0  0  0
   36.5202  -19.9723   24.6025 N   0  0  0  0  0  0  0  0  0  0  0  0
   37.3704  -20.0512   25.0925 H   0  0  0  0  0  0  0  0  0  0  0  0
   35.7647  -21.1549   24.2251 C   0  0  0  0  0  0  0  0  0  0  0  0
   34.9213  -21.7270   25.1856 C   0  0  0  0  0  0  0  0  0  0  0  0
   34.1600  -22.8687   24.8565 C   0  0  0  0  0  0  0  0  0  0  0  0
   33.2179  -23.6848   25.5654 C   0  0  0  0  0  0  0  0  0  0  0  0
   32.8215  -24.6302   24.7366 N   0  0  0  0  0  0  0  0  0  0  0  0
   31.8670  -25.6715   25.0497 C   0  0  0  0  0  0  0  0  0  0  0  0
   33.4188  -24.4937   23.5535 N   0  0  0  0  0  0  0  0  0  0  0  0
   34.2472  -23.4414   23.5899 C   0  0  0  0  0  0  0  0  0  0  0  0
   35.0948  -22.8698   22.6134 C   0  0  0  0  0  0  0  0  0  0  0  0
   35.8416  -21.7463   22.9396 C   0  0  0  0  0  0  0  0  0  0  0  0
   36.8949  -21.0612   21.6843 Cl  0  0  0  0  0  0  0  0  0  0  0  0
   34.4149  -15.1211   23.0178 C   0  0  0  0  0  0  0  0  0  0  0  0
   33.4387  -11.9502   23.3041 C   0  0  0  0  0  0  0  0  0  0  0  0
   33.2508  -13.1151   24.2006 C   0  0  0  0  0  0  0  0  0  0  0  0
   32.5811  -13.0075   25.3890 N   0  0  0  0  0  0  0  0  0  0  0  0
   32.5087  -14.1581   26.0717 N   0  0  0  0  0  0  0  0  0  0  0  0
   33.1525  -15.0294   25.2938 C   0  0  0  0  0  0  0  0  0  0  0  0
   33.6492  -14.4386   24.1066 C   0  0  0  0  0  0  0  0  0  0  0  0
   32.1893  -12.1641   25.7120 H   0  0  0  0  0  0  0  0  0  0  0  0
   37.8622  -17.5736   25.3195 C   0  0  0  0  0  0  0  0  0  0  0  0
   39.0558  -17.6635   24.3731 C   0  0  0  0  0  0  0  0  0  0  0  0
   38.8863  -17.9481   23.0132 C   0  0  0  0  0  0  0  0  0  0  0  0
   40.0001  -17.9998   22.1922 C   0  0  0  0  0  0  0  0  0  0  0  0
   39.9124  -18.2695   20.8572 F   0  0  0  0  0  0  0  0  0  0  0  0
   41.2577  -17.7963   22.7175 C   0  0  0  0  0  0  0  0  0  0  0  0
   42.3120  -17.8661   21.8692 F   0  0  0  0  0  0  0  0  0  0  0  0
   41.4344  -17.5199   24.0610 C   0  0  0  0  0  0  0  0  0  0  0  0
   40.3273  -17.4590   24.8811 C   0  0  0  0  0  0  0  0  0  0  0  0
   40.4756  -17.1831   26.2026 F   0  0  0  0  0  0  0  0  0  0  0  0
 23 24  1  0  0  0
 24 25  1  0  0  0
 25 26  1  0  0  0
 26 27  2  0  0  0
 27 28  1  0  0  0
 28 22  1  0  0  0
 22  1  1  0  0  0
  1  2  1  0  0  0
  2  3  2  0  0  0
  2  4  1  0  0  0
  4  5  2  0  0  0
  5  9  1  0  0  0
  9 11  1  0  0  0
 11 12  2  0  0  0
 12 13  1  0  0  0
 13 14  2  0  0  0
 14 15  1  0  0  0
 15 16  1  0  0  0
 15 17  1  0  0  0
 17 18  2  0  0  0
 18 19  1  0  0  0
 19 20  2  0  0  0
 20 21  1  0  0  0
  5  6  1  0  0  0
  6 30  1  0  0  0
 30 31  1  0  0  0
 31 32  2  0  0  0
 32 33  1  0  0  0
 33 34  1  0  0  0
 33 35  2  0  0  0
 35 36  1  0  0  0
 35 37  1  0  0  0
 37 38  2  0  0  0
 38 39  1  0  0  0
  6  7  1  0  0  0
  7  8  2  0  0  0
 28 24  2  0  0  0
  7  1  1  0  0  0
 20 11  1  0  0  0
 38 31  1  0  0  0
 18 13  1  0  0  0
 25 29  1  0  0  0
  9 10  1  0  0  0
M  END
> <minimizedAffinity>
-10.55357

> <minimizedRMSD>
0.66641

$$$$



 39 43  0  0  0  0  0  0  0  0999 V2000
   35.0625  -16.4064   23.3560 N   0  0  0  0  0  0  0  0  0  0  0  0
   34.4189  -17.5345   23.0832 C   0  0  0  0  0  0  0  0  0  0  0  0
   33.2364  -17.5380   22.4351 O   0  0  0  0  0  0  0  0  0  0  0  0
   34.9198  -18.6974   23.5084 N   0  0  0  0  0  0  0  0  0  0  0  0
   36.0588  -18.7120   24.1445 C   0  0  0  0  0  0  0  0  0  0  0  0
   36.7162  -17.5847   24.4109 N   0  0  0  0  0  0  0  0  0  0  0  0
   36.2140  -16.4188   24.0053 C   0  0  0  0  0  0  0  0  0  0  0  0
   36.7878  -15.4031   24.2524 O   0  0  0  0  0  0  0  0  0  0  0  0
   36.5705  -20.0019   24.5414 N   0  0  0  0  0  0  0  0  0  0  0  0
   37.4135  -20.0778   25.0442 H   0  0  0  0  0  0  0  0  0  0  0  0
   35.8093  -21.1856   24.1796 C   0  0  0  0  0  0  0  0  0  0  0  0
   34.9653  -21.7427   25.1483 C   0  0  0  0  0  0  0  0  0  0  0  0
   34.1986  -22.8850   24.8343 C   0  0  0  0  0  0  0  0  0  0  0  0
   33.2544  -23.6886   25.5546 C   0  0  0  0  0  0  0  0  0  0  0  0
   32.8523  -24.6420   24.7378 N   0  0  0  0  0  0  0  0  0  0  0  0
   31.8940  -25.6754   25.0651 C   0  0  0  0  0  0  0  0  0  0  0  0
   33.4479  -24.5220   23.5520 N   0  0  0  0  0  0  0  0  0  0  0  0
   34.2808  -23.4730   23.5743 C   0  0  0  0  0  0  0  0  0  0  0  0
   35.1289  -22.9166   22.5895 C   0  0  0  0  0  0  0  0  0  0  0  0
   35.8811  -21.7925   22.9009 C   0  0  0  0  0  0  0  0  0  0  0  0
   36.9348  -21.1269   21.6356 Cl  0  0  0  0  0  0  0  0  0  0  0  0
   34.5219  -15.1695   22.8300 C   0  0  0  0  0  0  0  0  0  0  0  0
   33.7158  -16.1102   25.9231 C   0  0  0  0  0  0  0  0  0  0  0  0
   33.4877  -14.8380   25.1972 C   0  0  0  0  0  0  0  0  0  0  0  0
   32.8530  -13.7785   25.7865 N   0  0  0  0  0  0  0  0  0  0  0  0
   32.7319  -12.7104   24.9849 N   0  0  0  0  0  0  0  0  0  0  0  0
   33.3098  -13.1020   23.8488 C   0  0  0  0  0  0  0  0  0  0  0  0
   33.8139  -14.4234   23.9167 C   0  0  0  0  0  0  0  0  0  0  0  0
   32.5170  -13.7985   26.7116 H   0  0  0  0  0  0  0  0  0  0  0  0
   37.9789  -17.6071   25.1330 C   0  0  0  0  0  0  0  0  0  0  0  0
   39.1481  -17.6981   24.1568 C   0  0  0  0  0  0  0  0  0  0  0  0
   38.9407  -17.9378   22.7934 C   0  0  0  0  0  0  0  0  0  0  0  0
   40.0340  -17.9925   21.9455 C   0  0  0  0  0  0  0  0  0  0  0  0
   39.9093  -18.2202   20.6056 F   0  0  0  0  0  0  0  0  0  0  0  0
   41.3079  -17.8358   22.4469 C   0  0  0  0  0  0  0  0  0  0  0  0
   42.3406  -17.9063   21.5725 F   0  0  0  0  0  0  0  0  0  0  0  0
   41.5219  -17.6039   23.7935 C   0  0  0  0  0  0  0  0  0  0  0  0
   40.4356  -17.5403   24.6406 C   0  0  0  0  0  0  0  0  0  0  0  0
   40.6206  -17.3075   25.9658 F   0  0  0  0  0  0  0  0  0  0  0  0
 23 24  1  0  0  0
 24 25  1  0  0  0
 25 26  1  0  0  0
 26 27  2  0  0  0
 27 28  1  0  0  0
 28 22  1  0  0  0
 22  1  1  0  0  0
  1  2  1  0  0  0
  2  3  2  0  0  0
  2  4  1  0  0  0
  4  5  2  0  0  0
  5  9  1  0  0  0
  9 11  1  0  0  0
 11 12  2  0  0  0
 12 13  1  0  0  0
 13 14  2  0  0  0
 14 15  1  0  0  0
 15 16  1  0  0  0
 15 17  1  0  0  0
 17 18  2  0  0  0
 18 19  1  0  0  0
 19 20  2  0  0  0
 20 21  1  0  0  0
  5  6  1  0  0  0
  6 30  1  0  0  0
 30 31  1  0  0  0
 31 32  2  0  0  0
 32 33  1  0  0  0
 33 34  1  0  0  0
 33 35  2  0  0  0
 35 36  1  0  0  0
 35 37  1  0  0  0
 37 38  2  0  0  0
 38 39  1  0  0  0
  6  7  1  0  0  0
  7  8  2  0  0  0
 28 24  2  0  0  0
  7  1  1  0  0  0
 20 11  1  0  0  0
 38 31  1  0  0  0
 18 13  1  0  0  0
 25 29  1  0  0  0
  9 10  1  0  0  0
M  END
> <minimizedAffinity>
-10.71037

> <minimizedRMSD>
0.79678

$$$$



 39 43  0  0  0  0  0  0  0  0999 V2000
   35.7763  -17.0459   25.5036 N   0  0  0  0  0  0  0  0  0  0  0  0
   34.9697  -18.0129   25.0843 C   0  0  0  0  0  0  0  0  0  0  0  0
   33.6359  -17.8354   24.9953 O   0  0  0  0  0  0  0  0  0  0  0  0
   35.4768  -19.2147   24.7977 N   0  0  0  0  0  0  0  0  0  0  0  0
   36.7641  -19.4068   24.8868 C   0  0  0  0  0  0  0  0  0  0  0  0
   37.5810  -18.4369   25.2946 N   0  0  0  0  0  0  0  0  0  0  0  0
   37.0803  -17.2399   25.5997 C   0  0  0  0  0  0  0  0  0  0  0  0
   37.8018  -16.3705   25.9805 O   0  0  0  0  0  0  0  0  0  0  0  0
   37.2581  -20.7131   24.5225 N   0  0  0  0  0  0  0  0  0  0  0  0
   38.2243  -20.9017   24.5082 H   0  0  0  0  0  0  0  0  0  0  0  0
   36.2925  -21.7427   24.1774 C   0  0  0  0  0  0  0  0  0  0  0  0
   35.5932  -22.3608   25.2215 C   0  0  0  0  0  0  0  0  0  0  0  0
   34.6372  -23.3567   24.9294 C   0  0  0  0  0  0  0  0  0  0  0  0
   33.7590  -24.1675   25.7216 C   0  0  0  0  0  0  0  0  0  0  0  0
   33.0815  -24.9339   24.8900 N   0  0  0  0  0  0  0  0  0  0  0  0
   32.0814  -25.9062   25.2741 C   0  0  0  0  0  0  0  0  0  0  0  0
   33.4393  -24.6859   23.6307 N   0  0  0  0  0  0  0  0  0  0  0  0
   34.3894  -23.7415   23.6138 C   0  0  0  0  0  0  0  0  0  0  0  0
   35.0894  -23.1219   22.5533 C   0  0  0  0  0  0  0  0  0  0  0  0
   36.0284  -22.1419   22.8435 C   0  0  0  0  0  0  0  0  0  0  0  0
   36.8865  -21.3906   21.4820 Cl  0  0  0  0  0  0  0  0  0  0  0  0
   35.2016  -15.7389   25.7496 C   0  0  0  0  0  0  0  0  0  0  0  0
   32.8325  -13.4581   25.1736 C   0  0  0  0  0  0  0  0  0  0  0  0
   33.7213  -14.2022   24.2507 C   0  0  0  0  0  0  0  0  0  0  0  0
   33.6731  -14.0083   22.8964 N   0  0  0  0  0  0  0  0  0  0  0  0
   34.5354  -14.7722   22.2131 N   0  0  0  0  0  0  0  0  0  0  0  0
   35.1727  -15.4582   23.1621 C   0  0  0  0  0  0  0  0  0  0  0  0
   34.7095  -15.1497   24.4645 C   0  0  0  0  0  0  0  0  0  0  0  0
   33.0623  -13.3677   22.4654 H   0  0  0  0  0  0  0  0  0  0  0  0
   39.0140  -18.6621   25.4054 C   0  0  0  0  0  0  0  0  0  0  0  0
   39.7193  -18.2423   24.1192 C   0  0  0  0  0  0  0  0  0  0  0  0
   39.1349  -18.4571   22.8654 C   0  0  0  0  0  0  0  0  0  0  0  0
   39.8073  -18.0406   21.7290 C   0  0  0  0  0  0  0  0  0  0  0  0
   39.2995  -18.2143   20.4742 F   0  0  0  0  0  0  0  0  0  0  0  0
   41.0451  -17.4445   21.8360 C   0  0  0  0  0  0  0  0  0  0  0  0
   41.6605  -17.0639   20.6904 F   0  0  0  0  0  0  0  0  0  0  0  0
   41.6319  -17.2335   23.0704 C   0  0  0  0  0  0  0  0  0  0  0  0
   40.9622  -17.6391   24.2058 C   0  0  0  0  0  0  0  0  0  0  0  0
   41.5159  -17.4368   25.4294 F   0  0  0  0  0  0  0  0  0  0  0  0
 23 24  1  0  0  0
 24 25  1  0  0  0
 25 26  1  0  0  0
 26 27  2  0  0  0
 27 28  1  0  0  0
 28 22  1  0  0  0
 22  1  1  0  0  0
  1  2  1  0  0  0
  2  3  2  0  0  0
  2  4  1  0  0  0
  4  5  2  0  0  0
  5  9  1  0  0  0
  9 11  1  0  0  0
 11 12  2  0  0  0
 12 13  1  0  0  0
 13 14  2  0  0  0
 14 15  1  0  0  0
 15 16  1  0  0  0
 15 17  1  0  0  0
 17 18  2  0  0  0
 18 19  1  0  0  0
 19 20  2  0  0  0
 20 21  1  0  0  0
  5  6  1  0  0  0
  6 30  1  0  0  0
 30 31  1  0  0  0
 31 32  2  0  0  0
 32 33  1  0  0  0
 33 34  1  0  0  0
 33 35  2  0  0  0
 35 36  1  0  0  0
 35 37  1  0  0  0
 37 38  2  0  0  0
 38 39  1  0  0  0
  6  7  1  0  0  0
  7  8  2  0  0  0
 28 24  2  0  0  0
  7  1  1  0  0  0
 20 11  1  0  0  0
 38 31  1  0  0  0
 18 13  1  0  0  0
 25 29  1  0  0  0
  9 10  1  0  0  0
M  END
> <minimizedAffinity>
-8.88916

> <minimizedRMSD>
2.04287

$$$$



 39 43  0  0  0  0  0  0  0  0999 V2000
   35.7763  -17.0459   25.5036 N   0  0  0  0  0  0  0  0  0  0  0  0
   34.9697  -18.0129   25.0843 C   0  0  0  0  0  0  0  0  0  0  0  0
   33.6359  -17.8354   24.9953 O   0  0  0  0  0  0  0  0  0  0  0  0
   35.4768  -19.2147   24.7977 N   0  0  0  0  0  0  0  0  0  0  0  0
   36.7641  -19.4068   24.8868 C   0  0  0  0  0  0  0  0  0  0  0  0
   37.5810  -18.4369   25.2946 N   0  0  0  0  0  0  0  0  0  0  0  0
   37.0803  -17.2399   25.5997 C   0  0  0  0  0  0  0  0  0  0  0  0
   37.8018  -16.3705   25.9805 O   0  0  0  0  0  0  0  0  0  0  0  0
   37.2581  -20.7131   24.5225 N   0  0  0  0  0  0  0  0  0  0  0  0
   38.2243  -20.9017   24.5082 H   0  0  0  0  0  0  0  0  0  0  0  0
   36.2925  -21.7427   24.1774 C   0  0  0  0  0  0  0  0  0  0  0  0
   35.5932  -22.3608   25.2215 C   0  0  0  0  0  0  0  0  0  0  0  0
   34.6372  -23.3567   24.9294 C   0  0  0  0  0  0  0  0  0  0  0  0
   33.7590  -24.1675   25.7216 C   0  0  0  0  0  0  0  0  0  0  0  0
   33.0815  -24.9339   24.8900 N   0  0  0  0  0  0  0  0  0  0  0  0
   32.0814  -25.9062   25.2741 C   0  0  0  0  0  0  0  0  0  0  0  0
   33.4393  -24.6859   23.6307 N   0  0  0  0  0  0  0  0  0  0  0  0
   34.3894  -23.7415   23.6138 C   0  0  0  0  0  0  0  0  0  0  0  0
   35.0894  -23.1219   22.5533 C   0  0  0  0  0  0  0  0  0  0  0  0
   36.0284  -22.1419   22.8435 C   0  0  0  0  0  0  0  0  0  0  0  0
   36.8865  -21.3906   21.4820 Cl  0  0  0  0  0  0  0  0  0  0  0  0
   35.2016  -15.7389   25.7496 C   0  0  0  0  0  0  0  0  0  0  0  0
   32.8325  -13.4581   25.1736 C   0  0  0  0  0  0  0  0  0  0  0  0
   33.7213  -14.2022   24.2507 C   0  0  0  0  0  0  0  0  0  0  0  0
   33.6731  -14.0083   22.8964 N   0  0  0  0  0  0  0  0  0  0  0  0
   34.5354  -14.7722   22.2131 N   0  0  0  0  0  0  0  0  0  0  0  0
   35.1727  -15.4582   23.1621 C   0  0  0  0  0  0  0  0  0  0  0  0
   34.7095  -15.1497   24.4645 C   0  0  0  0  0  0  0  0  0  0  0  0
   33.0623  -13.3677   22.4654 H   0  0  0  0  0  0  0  0  0  0  0  0
   39.0140  -18.6621   25.4054 C   0  0  0  0  0  0  0  0  0  0  0  0
   39.7193  -18.2423   24.1192 C   0  0  0  0  0  0  0  0  0  0  0  0
   39.1349  -18.4571   22.8654 C   0  0  0  0  0  0  0  0  0  0  0  0
   39.8073  -18.0406   21.7290 C   0  0  0  0  0  0  0  0  0  0  0  0
   39.2995  -18.2143   20.4742 F   0  0  0  0  0  0  0  0  0  0  0  0
   41.0451  -17.4445   21.8360 C   0  0  0  0  0  0  0  0  0  0  0  0
   41.6605  -17.0639   20.6904 F   0  0  0  0  0  0  0  0  0  0  0  0
   41.6319  -17.2335   23.0704 C   0  0  0  0  0  0  0  0  0  0  0  0
   40.9622  -17.6391   24.2058 C   0  0  0  0  0  0  0  0  0  0  0  0
   41.5159  -17.4368   25.4294 F   0  0  0  0  0  0  0  0  0  0  0  0
 23 24  1  0  0  0
 24 25  1  0  0  0
 25 26  1  0  0  0
 26 27  2  0  0  0
 27 28  1  0  0  0
 28 22  1  0  0  0
 22  1  1  0  0  0
  1  2  1  0  0  0
  2  3  2  0  0  0
  2  4  1  0  0  0
  4  5  2  0  0  0
  5  9  1  0  0  0
  9 11  1  0  0  0
 11 12  2  0  0  0
 12 13  1  0  0  0
 13 14  2  0  0  0
 14 15  1  0  0  0
 15 16  1  0  0  0
 15 17  1  0  0  0
 17 18  2  0  0  0
 18 19  1  0  0  0
 19 20  2  0  0  0
 20 21  1  0  0  0
  5  6  1  0  0  0
  6 30  1  0  0  0
 30 31  1  0  0  0
 31 32  2  0  0  0
 32 33  1  0  0  0
 33 34  1  0  0  0
 33 35  2  0  0  0
 35 36  1  0  0  0
 35 37  1  0  0  0
 37 38  2  0  0  0
 38 39  1  0  0  0
  6  7  1  0  0  0
  7  8  2  0  0  0
 28 24  2  0  0  0
  7  1  1  0  0  0
 20 11  1  0  0  0
 38 31  1  0  0  0
 18 13  1  0  0  0
 25 29  1  0  0  0
  9 10  1  0  0  0
M  END
> <minimizedAffinity>
-8.88916

> <minimizedRMSD>
2.04287

$$$$



 39 43  0  0  0  0  0  0  0  0999 V2000
   34.9868  -17.5518   25.5881 N   0  0  0  0  0  0  0  0  0  0  0  0
   34.2773  -18.6155   25.2332 C   0  0  0  0  0  0  0  0  0  0  0  0
   32.9387  -18.5571   25.0809 O   0  0  0  0  0  0  0  0  0  0  0  0
   34.8888  -19.7928   25.0783 N   0  0  0  0  0  0  0  0  0  0  0  0
   36.1823  -19.8697   25.2304 C   0  0  0  0  0  0  0  0  0  0  0  0
   36.9025  -18.8033   25.5740 N   0  0  0  0  0  0  0  0  0  0  0  0
   36.2970  -17.6288   25.7478 C   0  0  0  0  0  0  0  0  0  0  0  0
   36.9311  -16.6721   26.0708 O   0  0  0  0  0  0  0  0  0  0  0  0
   36.7921  -21.1588   25.0076 N   0  0  0  0  0  0  0  0  0  0  0  0
   37.7689  -21.2709   25.0590 H   0  0  0  0  0  0  0  0  0  0  0  0
   35.9274  -22.2867   24.7056 C   0  0  0  0  0  0  0  0  0  0  0  0
   35.3305  -22.9599   25.7787 C   0  0  0  0  0  0  0  0  0  0  0  0
   34.4734  -24.0527   25.5289 C   0  0  0  0  0  0  0  0  0  0  0  0
   33.7103  -24.9392   26.3583 C   0  0  0  0  0  0  0  0  0  0  0  0
   33.0887  -25.7820   25.5576 N   0  0  0  0  0  0  0  0  0  0  0  0
   32.2076  -26.8472   25.9848 C   0  0  0  0  0  0  0  0  0  0  0  0
   33.3773  -25.5149   24.2846 N   0  0  0  0  0  0  0  0  0  0  0  0
   34.2236  -24.4781   24.2263 C   0  0  0  0  0  0  0  0  0  0  0  0
   34.8206  -23.8035   23.1366 C   0  0  0  0  0  0  0  0  0  0  0  0
   35.6623  -22.7284   23.3853 C   0  0  0  0  0  0  0  0  0  0  0  0
   36.3929  -21.9105   21.9882 Cl  0  0  0  0  0  0  0  0  0  0  0  0
   34.3019  -16.2792   25.6904 C   0  0  0  0  0  0  0  0  0  0  0  0
   33.6305  -17.1548   22.5407 C   0  0  0  0  0  0  0  0  0  0  0  0
   34.1762  -15.9011   23.1132 C   0  0  0  0  0  0  0  0  0  0  0  0
   34.5212  -14.8397   22.3207 N   0  0  0  0  0  0  0  0  0  0  0  0
   34.9873  -13.7862   23.0063 N   0  0  0  0  0  0  0  0  0  0  0  0
   34.9567  -14.1961   24.2742 C   0  0  0  0  0  0  0  0  0  0  0  0
   34.4610  -15.5152   24.4125 C   0  0  0  0  0  0  0  0  0  0  0  0
   34.4350  -14.8490   21.3400 H   0  0  0  0  0  0  0  0  0  0  0  0
   38.3427  -18.8992   25.7558 C   0  0  0  0  0  0  0  0  0  0  0  0
   39.0691  -18.4592   24.4882 C   0  0  0  0  0  0  0  0  0  0  0  0
   38.5627  -18.7589   23.2181 C   0  0  0  0  0  0  0  0  0  0  0  0
   39.2499  -18.3205   22.0988 C   0  0  0  0  0  0  0  0  0  0  0  0
   38.8164  -18.5730   20.8295 F   0  0  0  0  0  0  0  0  0  0  0  0
   40.4279  -17.6197   22.2396 C   0  0  0  0  0  0  0  0  0  0  0  0
   41.0617  -17.2222   21.1099 F   0  0  0  0  0  0  0  0  0  0  0  0
   40.9379  -17.3241   23.4908 C   0  0  0  0  0  0  0  0  0  0  0  0
   40.2528  -17.7513   24.6088 C   0  0  0  0  0  0  0  0  0  0  0  0
   40.7309  -17.4676   25.8479 F   0  0  0  0  0  0  0  0  0  0  0  0
 23 24  1  0  0  0
 24 25  1  0  0  0
 25 26  1  0  0  0
 26 27  2  0  0  0
 27 28  1  0  0  0
 28 22  1  0  0  0
 22  1  1  0  0  0
  1  2  1  0  0  0
  2  3  2  0  0  0
  2  4  1  0  0  0
  4  5  2  0  0  0
  5  9  1  0  0  0
  9 11  1  0  0  0
 11 12  2  0  0  0
 12 13  1  0  0  0
 13 14  2  0  0  0
 14 15  1  0  0  0
 15 16  1  0  0  0
 15 17  1  0  0  0
 17 18  2  0  0  0
 18 19  1  0  0  0
 19 20  2  0  0  0
 20 21  1  0  0  0
  5  6  1  0  0  0
  6 30  1  0  0  0
 30 31  1  0  0  0
 31 32  2  0  0  0
 32 33  1  0  0  0
 33 34  1  0  0  0
 33 35  2  0  0  0
 35 36  1  0  0  0
 35 37  1  0  0  0
 37 38  2  0  0  0
 38 39  1  0  0  0
  6  7  1  0  0  0
  7  8  2  0  0  0
 28 24  2  0  0  0
  7  1  1  0  0  0
 20 11  1  0  0  0
 38 31  1  0  0  0
 18 13  1  0  0  0
 25 29  1  0  0  0
  9 10  1  0  0  0
M  END
> <minimizedAffinity>
-6.69024

> <minimizedRMSD>
1.89346

$$$$



 39 43  0  0  0  0  0  0  0  0999 V2000
   34.9868  -17.5518   25.5881 N   0  0  0  0  0  0  0  0  0  0  0  0
   34.2773  -18.6155   25.2332 C   0  0  0  0  0  0  0  0  0  0  0  0
   32.9387  -18.5571   25.0809 O   0  0  0  0  0  0  0  0  0  0  0  0
   34.8888  -19.7928   25.0783 N   0  0  0  0  0  0  0  0  0  0  0  0
   36.1823  -19.8697   25.2304 C   0  0  0  0  0  0  0  0  0  0  0  0
   36.9025  -18.8033   25.5740 N   0  0  0  0  0  0  0  0  0  0  0  0
   36.2970  -17.6288   25.7478 C   0  0  0  0  0  0  0  0  0  0  0  0
   36.9311  -16.6721   26.0708 O   0  0  0  0  0  0  0  0  0  0  0  0
   36.7921  -21.1588   25.0076 N   0  0  0  0  0  0  0  0  0  0  0  0
   37.7689  -21.2709   25.0590 H   0  0  0  0  0  0  0  0  0  0  0  0
   35.9274  -22.2867   24.7056 C   0  0  0  0  0  0  0  0  0  0  0  0
   35.3305  -22.9599   25.7787 C   0  0  0  0  0  0  0  0  0  0  0  0
   34.4734  -24.0527   25.5289 C   0  0  0  0  0  0  0  0  0  0  0  0
   33.7103  -24.9392   26.3583 C   0  0  0  0  0  0  0  0  0  0  0  0
   33.0887  -25.7820   25.5576 N   0  0  0  0  0  0  0  0  0  0  0  0
   32.2076  -26.8472   25.9848 C   0  0  0  0  0  0  0  0  0  0  0  0
   33.3773  -25.5149   24.2846 N   0  0  0  0  0  0  0  0  0  0  0  0
   34.2236  -24.4781   24.2263 C   0  0  0  0  0  0  0  0  0  0  0  0
   34.8206  -23.8035   23.1366 C   0  0  0  0  0  0  0  0  0  0  0  0
   35.6623  -22.7284   23.3853 C   0  0  0  0  0  0  0  0  0  0  0  0
   36.3929  -21.9105   21.9882 Cl  0  0  0  0  0  0  0  0  0  0  0  0
   34.3019  -16.2792   25.6904 C   0  0  0  0  0  0  0  0  0  0  0  0
   33.6305  -17.1548   22.5407 C   0  0  0  0  0  0  0  0  0  0  0  0
   34.1762  -15.9011   23.1132 C   0  0  0  0  0  0  0  0  0  0  0  0
   34.5212  -14.8397   22.3207 N   0  0  0  0  0  0  0  0  0  0  0  0
   34.9873  -13.7862   23.0063 N   0  0  0  0  0  0  0  0  0  0  0  0
   34.9567  -14.1961   24.2742 C   0  0  0  0  0  0  0  0  0  0  0  0
   34.4610  -15.5152   24.4125 C   0  0  0  0  0  0  0  0  0  0  0  0
   34.4350  -14.8490   21.3400 H   0  0  0  0  0  0  0  0  0  0  0  0
   38.3427  -18.8992   25.7558 C   0  0  0  0  0  0  0  0  0  0  0  0
   39.0691  -18.4592   24.4882 C   0  0  0  0  0  0  0  0  0  0  0  0
   38.5627  -18.7589   23.2181 C   0  0  0  0  0  0  0  0  0  0  0  0
   39.2499  -18.3205   22.0988 C   0  0  0  0  0  0  0  0  0  0  0  0
   38.8164  -18.5730   20.8295 F   0  0  0  0  0  0  0  0  0  0  0  0
   40.4279  -17.6197   22.2396 C   0  0  0  0  0  0  0  0  0  0  0  0
   41.0617  -17.2222   21.1099 F   0  0  0  0  0  0  0  0  0  0  0  0
   40.9379  -17.3241   23.4908 C   0  0  0  0  0  0  0  0  0  0  0  0
   40.2528  -17.7513   24.6088 C   0  0  0  0  0  0  0  0  0  0  0  0
   40.7309  -17.4676   25.8479 F   0  0  0  0  0  0  0  0  0  0  0  0
 23 24  1  0  0  0
 24 25  1  0  0  0
 25 26  1  0  0  0
 26 27  2  0  0  0
 27 28  1  0  0  0
 28 22  1  0  0  0
 22  1  1  0  0  0
  1  2  1  0  0  0
  2  3  2  0  0  0
  2  4  1  0  0  0
  4  5  2  0  0  0
  5  9  1  0  0  0
  9 11  1  0  0  0
 11 12  2  0  0  0
 12 13  1  0  0  0
 13 14  2  0  0  0
 14 15  1  0  0  0
 15 16  1  0  0  0
 15 17  1  0  0  0
 17 18  2  0  0  0
 18 19  1  0  0  0
 19 20  2  0  0  0
 20 21  1  0  0  0
  5  6  1  0  0  0
  6 30  1  0  0  0
 30 31  1  0  0  0
 31 32  2  0  0  0
 32 33  1  0  0  0
 33 34  1  0  0  0
 33 35  2  0  0  0
 35 36  1  0  0  0
 35 37  1  0  0  0
 37 38  2  0  0  0
 38 39  1  0  0  0
  6  7  1  0  0  0
  7  8  2  0  0  0
 28 24  2  0  0  0
  7  1  1  0  0  0
 20 11  1  0  0  0
 38 31  1  0  0  0
 18 13  1  0  0  0
 25 29  1  0  0  0
  9 10  1  0  0  0
M  END
> <minimizedAffinity>
-6.69024

> <minimizedRMSD>
1.89346

$$$$



 39 43  0  0  0  0  0  0  0  0999 V2000
   35.0625  -16.4064   23.3560 N   0  0  0  0  0  0  0  0  0  0  0  0
   34.4189  -17.5345   23.0832 C   0  0  0  0  0  0  0  0  0  0  0  0
   33.2364  -17.5380   22.4351 O   0  0  0  0  0  0  0  0  0  0  0  0
   34.9198  -18.6974   23.5084 N   0  0  0  0  0  0  0  0  0  0  0  0
   36.0588  -18.7120   24.1445 C   0  0  0  0  0  0  0  0  0  0  0  0
   36.7162  -17.5847   24.4109 N   0  0  0  0  0  0  0  0  0  0  0  0
   36.2140  -16.4188   24.0053 C   0  0  0  0  0  0  0  0  0  0  0  0
   36.7878  -15.4031   24.2524 O   0  0  0  0  0  0  0  0  0  0  0  0
   36.5705  -20.0019   24.5414 N   0  0  0  0  0  0  0  0  0  0  0  0
   37.4135  -20.0778   25.0442 H   0  0  0  0  0  0  0  0  0  0  0  0
   35.8093  -21.1856   24.1796 C   0  0  0  0  0  0  0  0  0  0  0  0
   34.9653  -21.7427   25.1483 C   0  0  0  0  0  0  0  0  0  0  0  0
   34.1986  -22.8850   24.8343 C   0  0  0  0  0  0  0  0  0  0  0  0
   33.2544  -23.6886   25.5546 C   0  0  0  0  0  0  0  0  0  0  0  0
   32.8523  -24.6420   24.7378 N   0  0  0  0  0  0  0  0  0  0  0  0
   31.8940  -25.6754   25.0651 C   0  0  0  0  0  0  0  0  0  0  0  0
   33.4479  -24.5220   23.5520 N   0  0  0  0  0  0  0  0  0  0  0  0
   34.2808  -23.4730   23.5743 C   0  0  0  0  0  0  0  0  0  0  0  0
   35.1289  -22.9166   22.5895 C   0  0  0  0  0  0  0  0  0  0  0  0
   35.8811  -21.7925   22.9009 C   0  0  0  0  0  0  0  0  0  0  0  0
   36.9348  -21.1269   21.6356 Cl  0  0  0  0  0  0  0  0  0  0  0  0
   34.5219  -15.1695   22.8300 C   0  0  0  0  0  0  0  0  0  0  0  0
   33.7158  -16.1102   25.9231 C   0  0  0  0  0  0  0  0  0  0  0  0
   33.4877  -14.8380   25.1972 C   0  0  0  0  0  0  0  0  0  0  0  0
   32.8530  -13.7785   25.7865 N   0  0  0  0  0  0  0  0  0  0  0  0
   32.7319  -12.7104   24.9849 N   0  0  0  0  0  0  0  0  0  0  0  0
   33.3098  -13.1020   23.8488 C   0  0  0  0  0  0  0  0  0  0  0  0
   33.8139  -14.4234   23.9167 C   0  0  0  0  0  0  0  0  0  0  0  0
   32.5170  -13.7985   26.7116 H   0  0  0  0  0  0  0  0  0  0  0  0
   37.9789  -17.6071   25.1330 C   0  0  0  0  0  0  0  0  0  0  0  0
   39.1481  -17.6981   24.1568 C   0  0  0  0  0  0  0  0  0  0  0  0
   38.9407  -17.9378   22.7934 C   0  0  0  0  0  0  0  0  0  0  0  0
   40.0340  -17.9925   21.9455 C   0  0  0  0  0  0  0  0  0  0  0  0
   39.9093  -18.2202   20.6056 F   0  0  0  0  0  0  0  0  0  0  0  0
   41.3079  -17.8358   22.4469 C   0  0  0  0  0  0  0  0  0  0  0  0
   42.3406  -17.9063   21.5725 F   0  0  0  0  0  0  0  0  0  0  0  0
   41.5219  -17.6039   23.7935 C   0  0  0  0  0  0  0  0  0  0  0  0
   40.4356  -17.5403   24.6406 C   0  0  0  0  0  0  0  0  0  0  0  0
   40.6206  -17.3075   25.9658 F   0  0  0  0  0  0  0  0  0  0  0  0
 23 24  1  0  0  0
 24 25  1  0  0  0
 25 26  1  0  0  0
 26 27  2  0  0  0
 27 28  1  0  0  0
 28 22  1  0  0  0
 22  1  1  0  0  0
  1  2  1  0  0  0
  2  3  2  0  0  0
  2  4  1  0  0  0
  4  5  2  0  0  0
  5  9  1  0  0  0
  9 11  1  0  0  0
 11 12  2  0  0  0
 12 13  1  0  0  0
 13 14  2  0  0  0
 14 15  1  0  0  0
 15 16  1  0  0  0
 15 17  1  0  0  0
 17 18  2  0  0  0
 18 19  1  0  0  0
 19 20  2  0  0  0
 20 21  1  0  0  0
  5  6  1  0  0  0
  6 30  1  0  0  0
 30 31  1  0  0  0
 31 32  2  0  0  0
 32 33  1  0  0  0
 33 34  1  0  0  0
 33 35  2  0  0  0
 35 36  1  0  0  0
 35 37  1  0  0  0
 37 38  2  0  0  0
 38 39  1  0  0  0
  6  7  1  0  0  0
  7  8  2  0  0  0
 28 24  2  0  0  0
  7  1  1  0  0  0
 20 11  1  0  0  0
 38 31  1  0  0  0
 18 13  1  0  0  0
 25 29  1  0  0  0
  9 10  1  0  0  0
M  END
> <minimizedAffinity>
-10.71037

> <minimizedRMSD>
0.79678

$$$$



 39 43  0  0  0  0  0  0  0  0999 V2000
   35.7763  -17.0459   25.5036 N   0  0  0  0  0  0  0  0  0  0  0  0
   34.9697  -18.0129   25.0843 C   0  0  0  0  0  0  0  0  0  0  0  0
   33.6359  -17.8354   24.9953 O   0  0  0  0  0  0  0  0  0  0  0  0
   35.4768  -19.2147   24.7977 N   0  0  0  0  0  0  0  0  0  0  0  0
   36.7641  -19.4068   24.8868 C   0  0  0  0  0  0  0  0  0  0  0  0
   37.5810  -18.4369   25.2946 N   0  0  0  0  0  0  0  0  0  0  0  0
   37.0803  -17.2399   25.5997 C   0  0  0  0  0  0  0  0  0  0  0  0
   37.8018  -16.3705   25.9805 O   0  0  0  0  0  0  0  0  0  0  0  0
   37.2581  -20.7131   24.5225 N   0  0  0  0  0  0  0  0  0  0  0  0
   38.2243  -20.9017   24.5082 H   0  0  0  0  0  0  0  0  0  0  0  0
   36.2925  -21.7427   24.1774 C   0  0  0  0  0  0  0  0  0  0  0  0
   35.5932  -22.3608   25.2215 C   0  0  0  0  0  0  0  0  0  0  0  0
   34.6372  -23.3567   24.9294 C   0  0  0  0  0  0  0  0  0  0  0  0
   33.7590  -24.1675   25.7216 C   0  0  0  0  0  0  0  0  0  0  0  0
   33.0815  -24.9339   24.8900 N   0  0  0  0  0  0  0  0  0  0  0  0
   32.0814  -25.9062   25.2741 C   0  0  0  0  0  0  0  0  0  0  0  0
   33.4393  -24.6859   23.6307 N   0  0  0  0  0  0  0  0  0  0  0  0
   34.3894  -23.7415   23.6138 C   0  0  0  0  0  0  0  0  0  0  0  0
   35.0894  -23.1219   22.5533 C   0  0  0  0  0  0  0  0  0  0  0  0
   36.0284  -22.1419   22.8435 C   0  0  0  0  0  0  0  0  0  0  0  0
   36.8865  -21.3906   21.4820 Cl  0  0  0  0  0  0  0  0  0  0  0  0
   35.2016  -15.7389   25.7496 C   0  0  0  0  0  0  0  0  0  0  0  0
   32.8325  -13.4581   25.1736 C   0  0  0  0  0  0  0  0  0  0  0  0
   33.7213  -14.2022   24.2507 C   0  0  0  0  0  0  0  0  0  0  0  0
   33.6731  -14.0083   22.8964 N   0  0  0  0  0  0  0  0  0  0  0  0
   34.5354  -14.7722   22.2131 N   0  0  0  0  0  0  0  0  0  0  0  0
   35.1727  -15.4582   23.1621 C   0  0  0  0  0  0  0  0  0  0  0  0
   34.7095  -15.1497   24.4645 C   0  0  0  0  0  0  0  0  0  0  0  0
   33.0623  -13.3677   22.4654 H   0  0  0  0  0  0  0  0  0  0  0  0
   39.0140  -18.6621   25.4054 C   0  0  0  0  0  0  0  0  0  0  0  0
   39.7193  -18.2423   24.1192 C   0  0  0  0  0  0  0  0  0  0  0  0
   39.1349  -18.4571   22.8654 C   0  0  0  0  0  0  0  0  0  0  0  0
   39.8073  -18.0406   21.7290 C   0  0  0  0  0  0  0  0  0  0  0  0
   39.2995  -18.2143   20.4742 F   0  0  0  0  0  0  0  0  0  0  0  0
   41.0451  -17.4445   21.8360 C   0  0  0  0  0  0  0  0  0  0  0  0
   41.6605  -17.0639   20.6904 F   0  0  0  0  0  0  0  0  0  0  0  0
   41.6319  -17.2335   23.0704 C   0  0  0  0  0  0  0  0  0  0  0  0
   40.9622  -17.6391   24.2058 C   0  0  0  0  0  0  0  0  0  0  0  0
   41.5159  -17.4368   25.4294 F   0  0  0  0  0  0  0  0  0  0  0  0
 23 24  1  0  0  0
 24 25  1  0  0  0
 25 26  1  0  0  0
 26 27  2  0  0  0
 27 28  1  0  0  0
 28 22  1  0  0  0
 22  1  1  0  0  0
  1  2  1  0  0  0
  2  3  2  0  0  0
  2  4  1  0  0  0
  4  5  2  0  0  0
  5  9  1  0  0  0
  9 11  1  0  0  0
 11 12  2  0  0  0
 12 13  1  0  0  0
 13 14  2  0  0  0
 14 15  1  0  0  0
 15 16  1  0  0  0
 15 17  1  0  0  0
 17 18  2  0  0  0
 18 19  1  0  0  0
 19 20  2  0  0  0
 20 21  1  0  0  0
  5  6  1  0  0  0
  6 30  1  0  0  0
 30 31  1  0  0  0
 31 32  2  0  0  0
 32 33  1  0  0  0
 33 34  1  0  0  0
 33 35  2  0  0  0
 35 36  1  0  0  0
 35 37  1  0  0  0
 37 38  2  0  0  0
 38 39  1  0  0  0
  6  7  1  0  0  0
  7  8  2  0  0  0
 28 24  2  0  0  0
  7  1  1  0  0  0
 20 11  1  0  0  0
 38 31  1  0  0  0
 18 13  1  0  0  0
 25 29  1  0  0  0
  9 10  1  0  0  0
M  END
> <minimizedAffinity>
-8.88916

> <minimizedRMSD>
2.04287

$$$$



 39 43  0  0  0  0  0  0  0  0999 V2000
   35.0625  -16.4064   23.3560 N   0  0  0  0  0  0  0  0  0  0  0  0
   34.4189  -17.5345   23.0832 C   0  0  0  0  0  0  0  0  0  0  0  0
   33.2364  -17.5380   22.4351 O   0  0  0  0  0  0  0  0  0  0  0  0
   34.9198  -18.6974   23.5084 N   0  0  0  0  0  0  0  0  0  0  0  0
   36.0588  -18.7120   24.1445 C   0  0  0  0  0  0  0  0  0  0  0  0
   36.7162  -17.5847   24.4109 N   0  0  0  0  0  0  0  0  0  0  0  0
   36.2140  -16.4188   24.0053 C   0  0  0  0  0  0  0  0  0  0  0  0
   36.7878  -15.4031   24.2524 O   0  0  0  0  0  0  0  0  0  0  0  0
   36.5705  -20.0019   24.5414 N   0  0  0  0  0  0  0  0  0  0  0  0
   37.4135  -20.0778   25.0442 H   0  0  0  0  0  0  0  0  0  0  0  0
   35.8093  -21.1856   24.1796 C   0  0  0  0  0  0  0  0  0  0  0  0
   34.9653  -21.7427   25.1483 C   0  0  0  0  0  0  0  0  0  0  0  0
   34.1986  -22.8850   24.8343 C   0  0  0  0  0  0  0  0  0  0  0  0
   33.2544  -23.6886   25.5546 C   0  0  0  0  0  0  0  0  0  0  0  0
   32.8523  -24.6420   24.7378 N   0  0  0  0  0  0  0  0  0  0  0  0
   31.8940  -25.6754   25.0651 C   0  0  0  0  0  0  0  0  0  0  0  0
   33.4479  -24.5220   23.5520 N   0  0  0  0  0  0  0  0  0  0  0  0
   34.2808  -23.4730   23.5743 C   0  0  0  0  0  0  0  0  0  0  0  0
   35.1289  -22.9166   22.5895 C   0  0  0  0  0  0  0  0  0  0  0  0
   35.8811  -21.7925   22.9009 C   0  0  0  0  0  0  0  0  0  0  0  0
   36.9348  -21.1269   21.6356 Cl  0  0  0  0  0  0  0  0  0  0  0  0
   34.5219  -15.1695   22.8300 C   0  0  0  0  0  0  0  0  0  0  0  0
   33.7158  -16.1102   25.9231 C   0  0  0  0  0  0  0  0  0  0  0  0
   33.4877  -14.8380   25.1972 C   0  0  0  0  0  0  0  0  0  0  0  0
   32.8530  -13.7785   25.7865 N   0  0  0  0  0  0  0  0  0  0  0  0
   32.7319  -12.7104   24.9849 N   0  0  0  0  0  0  0  0  0  0  0  0
   33.3098  -13.1020   23.8488 C   0  0  0  0  0  0  0  0  0  0  0  0
   33.8139  -14.4234   23.9167 C   0  0  0  0  0  0  0  0  0  0  0  0
   32.5170  -13.7985   26.7116 H   0  0  0  0  0  0  0  0  0  0  0  0
   37.9789  -17.6071   25.1330 C   0  0  0  0  0  0  0  0  0  0  0  0
   39.1481  -17.6981   24.1568 C   0  0  0  0  0  0  0  0  0  0  0  0
   38.9407  -17.9378   22.7934 C   0  0  0  0  0  0  0  0  0  0  0  0
   40.0340  -17.9925   21.9455 C   0  0  0  0  0  0  0  0  0  0  0  0
   39.9093  -18.2202   20.6056 F   0  0  0  0  0  0  0  0  0  0  0  0
   41.3079  -17.8358   22.4469 C   0  0  0  0  0  0  0  0  0  0  0  0
   42.3406  -17.9063   21.5725 F   0  0  0  0  0  0  0  0  0  0  0  0
   41.5219  -17.6039   23.7935 C   0  0  0  0  0  0  0  0  0  0  0  0
   40.4356  -17.5403   24.6406 C   0  0  0  0  0  0  0  0  0  0  0  0
   40.6206  -17.3075   25.9658 F   0  0  0  0  0  0  0  0  0  0  0  0
 23 24  1  0  0  0
 24 25  1  0  0  0
 25 26  1  0  0  0
 26 27  2  0  0  0
 27 28  1  0  0  0
 28 22  1  0  0  0
 22  1  1  0  0  0
  1  2  1  0  0  0
  2  3  2  0  0  0
  2  4  1  0  0  0
  4  5  2  0  0  0
  5  9  1  0  0  0
  9 11  1  0  0  0
 11 12  2  0  0  0
 12 13  1  0  0  0
 13 14  2  0  0  0
 14 15  1  0  0  0
 15 16  1  0  0  0
 15 17  1  0  0  0
 17 18  2  0  0  0
 18 19  1  0  0  0
 19 20  2  0  0  0
 20 21  1  0  0  0
  5  6  1  0  0  0
  6 30  1  0  0  0
 30 31  1  0  0  0
 31 32  2  0  0  0
 32 33  1  0  0  0
 33 34  1  0  0  0
 33 35  2  0  0  0
 35 36  1  0  0  0
 35 37  1  0  0  0
 37 38  2  0  0  0
 38 39  1  0  0  0
  6  7  1  0  0  0
  7  8  2  0  0  0
 28 24  2  0  0  0
  7  1  1  0  0  0
 20 11  1  0  0  0
 38 31  1  0  0  0
 18 13  1  0  0  0
 25 29  1  0  0  0
  9 10  1  0  0  0
M  END
> <minimizedAffinity>
-10.71037

> <minimizedRMSD>
0.79678

$$$$



 39 43  0  0  0  0  0  0  0  0999 V2000
   35.0625  -16.4064   23.3560 N   0  0  0  0  0  0  0  0  0  0  0  0
   34.4189  -17.5345   23.0832 C   0  0  0  0  0  0  0  0  0  0  0  0
   33.2364  -17.5380   22.4351 O   0  0  0  0  0  0  0  0  0  0  0  0
   34.9198  -18.6974   23.5084 N   0  0  0  0  0  0  0  0  0  0  0  0
   36.0588  -18.7120   24.1445 C   0  0  0  0  0  0  0  0  0  0  0  0
   36.7162  -17.5847   24.4109 N   0  0  0  0  0  0  0  0  0  0  0  0
   36.2140  -16.4188   24.0053 C   0  0  0  0  0  0  0  0  0  0  0  0
   36.7878  -15.4031   24.2524 O   0  0  0  0  0  0  0  0  0  0  0  0
   36.5705  -20.0019   24.5414 N   0  0  0  0  0  0  0  0  0  0  0  0
   37.4135  -20.0778   25.0442 H   0  0  0  0  0  0  0  0  0  0  0  0
   35.8093  -21.1856   24.1796 C   0  0  0  0  0  0  0  0  0  0  0  0
   34.9653  -21.7427   25.1483 C   0  0  0  0  0  0  0  0  0  0  0  0
   34.1986  -22.8850   24.8343 C   0  0  0  0  0  0  0  0  0  0  0  0
   33.2544  -23.6886   25.5546 C   0  0  0  0  0  0  0  0  0  0  0  0
   32.8523  -24.6420   24.7378 N   0  0  0  0  0  0  0  0  0  0  0  0
   31.8940  -25.6754   25.0651 C   0  0  0  0  0  0  0  0  0  0  0  0
   33.4479  -24.5220   23.5520 N   0  0  0  0  0  0  0  0  0  0  0  0
   34.2808  -23.4730   23.5743 C   0  0  0  0  0  0  0  0  0  0  0  0
   35.1289  -22.9166   22.5895 C   0  0  0  0  0  0  0  0  0  0  0  0
   35.8811  -21.7925   22.9009 C   0  0  0  0  0  0  0  0  0  0  0  0
   36.9348  -21.1269   21.6356 Cl  0  0  0  0  0  0  0  0  0  0  0  0
   34.5219  -15.1695   22.8300 C   0  0  0  0  0  0  0  0  0  0  0  0
   33.7158  -16.1102   25.9231 C   0  0  0  0  0  0  0  0  0  0  0  0
   33.4877  -14.8380   25.1972 C   0  0  0  0  0  0  0  0  0  0  0  0
   32.8530  -13.7785   25.7865 N   0  0  0  0  0  0  0  0  0  0  0  0
   32.7319  -12.7104   24.9849 N   0  0  0  0  0  0  0  0  0  0  0  0
   33.3098  -13.1020   23.8488 C   0  0  0  0  0  0  0  0  0  0  0  0
   33.8139  -14.4234   23.9167 C   0  0  0  0  0  0  0  0  0  0  0  0
   32.5170  -13.7985   26.7116 H   0  0  0  0  0  0  0  0  0  0  0  0
   37.9789  -17.6071   25.1330 C   0  0  0  0  0  0  0  0  0  0  0  0
   39.1481  -17.6981   24.1568 C   0  0  0  0  0  0  0  0  0  0  0  0
   38.9407  -17.9378   22.7934 C   0  0  0  0  0  0  0  0  0  0  0  0
   40.0340  -17.9925   21.9455 C   0  0  0  0  0  0  0  0  0  0  0  0
   39.9093  -18.2202   20.6056 F   0  0  0  0  0  0  0  0  0  0  0  0
   41.3079  -17.8358   22.4469 C   0  0  0  0  0  0  0  0  0  0  0  0
   42.3406  -17.9063   21.5725 F   0  0  0  0  0  0  0  0  0  0  0  0
   41.5219  -17.6039   23.7935 C   0  0  0  0  0  0  0  0  0  0  0  0
   40.4356  -17.5403   24.6406 C   0  0  0  0  0  0  0  0  0  0  0  0
   40.6206  -17.3075   25.9658 F   0  0  0  0  0  0  0  0  0  0  0  0
 23 24  1  0  0  0
 24 25  1  0  0  0
 25 26  1  0  0  0
 26 27  2  0  0  0
 27 28  1  0  0  0
 28 22  1  0  0  0
 22  1  1  0  0  0
  1  2  1  0  0  0
  2  3  2  0  0  0
  2  4  1  0  0  0
  4  5  2  0  0  0
  5  9  1  0  0  0
  9 11  1  0  0  0
 11 12  2  0  0  0
 12 13  1  0  0  0
 13 14  2  0  0  0
 14 15  1  0  0  0
 15 16  1  0  0  0
 15 17  1  0  0  0
 17 18  2  0  0  0
 18 19  1  0  0  0
 19 20  2  0  0  0
 20 21  1  0  0  0
  5  6  1  0  0  0
  6 30  1  0  0  0
 30 31  1  0  0  0
 31 32  2  0  0  0
 32 33  1  0  0  0
 33 34  1  0  0  0
 33 35  2  0  0  0
 35 36  1  0  0  0
 35 37  1  0  0  0
 37 38  2  0  0  0
 38 39  1  0  0  0
  6  7  1  0  0  0
  7  8  2  0  0  0
 28 24  2  0  0  0
  7  1  1  0  0  0
 20 11  1  0  0  0
 38 31  1  0  0  0
 18 13  1  0  0  0
 25 29  1  0  0  0
  9 10  1  0  0  0
M  END
> <minimizedAffinity>
-10.71037

> <minimizedRMSD>
0.79678

$$$$



 39 43  0  0  0  0  0  0  0  0999 V2000
   34.9868  -17.5518   25.5881 N   0  0  0  0  0  0  0  0  0  0  0  0
   34.2773  -18.6155   25.2332 C   0  0  0  0  0  0  0  0  0  0  0  0
   32.9387  -18.5571   25.0809 O   0  0  0  0  0  0  0  0  0  0  0  0
   34.8888  -19.7928   25.0783 N   0  0  0  0  0  0  0  0  0  0  0  0
   36.1823  -19.8697   25.2304 C   0  0  0  0  0  0  0  0  0  0  0  0
   36.9025  -18.8033   25.5740 N   0  0  0  0  0  0  0  0  0  0  0  0
   36.2970  -17.6288   25.7478 C   0  0  0  0  0  0  0  0  0  0  0  0
   36.9311  -16.6721   26.0708 O   0  0  0  0  0  0  0  0  0  0  0  0
   36.7921  -21.1588   25.0076 N   0  0  0  0  0  0  0  0  0  0  0  0
   37.7689  -21.2709   25.0590 H   0  0  0  0  0  0  0  0  0  0  0  0
   35.9274  -22.2867   24.7056 C   0  0  0  0  0  0  0  0  0  0  0  0
   35.3305  -22.9599   25.7787 C   0  0  0  0  0  0  0  0  0  0  0  0
   34.4734  -24.0527   25.5289 C   0  0  0  0  0  0  0  0  0  0  0  0
   33.7103  -24.9392   26.3583 C   0  0  0  0  0  0  0  0  0  0  0  0
   33.0887  -25.7820   25.5576 N   0  0  0  0  0  0  0  0  0  0  0  0
   32.2076  -26.8472   25.9848 C   0  0  0  0  0  0  0  0  0  0  0  0
   33.3773  -25.5149   24.2846 N   0  0  0  0  0  0  0  0  0  0  0  0
   34.2236  -24.4781   24.2263 C   0  0  0  0  0  0  0  0  0  0  0  0
   34.8206  -23.8035   23.1366 C   0  0  0  0  0  0  0  0  0  0  0  0
   35.6623  -22.7284   23.3853 C   0  0  0  0  0  0  0  0  0  0  0  0
   36.3929  -21.9105   21.9882 Cl  0  0  0  0  0  0  0  0  0  0  0  0
   34.3019  -16.2792   25.6904 C   0  0  0  0  0  0  0  0  0  0  0  0
   33.6305  -17.1548   22.5407 C   0  0  0  0  0  0  0  0  0  0  0  0
   34.1762  -15.9011   23.1132 C   0  0  0  0  0  0  0  0  0  0  0  0
   34.5212  -14.8397   22.3207 N   0  0  0  0  0  0  0  0  0  0  0  0
   34.9873  -13.7862   23.0063 N   0  0  0  0  0  0  0  0  0  0  0  0
   34.9567  -14.1961   24.2742 C   0  0  0  0  0  0  0  0  0  0  0  0
   34.4610  -15.5152   24.4125 C   0  0  0  0  0  0  0  0  0  0  0  0
   34.4350  -14.8490   21.3400 H   0  0  0  0  0  0  0  0  0  0  0  0
   38.3427  -18.8992   25.7558 C   0  0  0  0  0  0  0  0  0  0  0  0
   39.0691  -18.4592   24.4882 C   0  0  0  0  0  0  0  0  0  0  0  0
   38.5627  -18.7589   23.2181 C   0  0  0  0  0  0  0  0  0  0  0  0
   39.2499  -18.3205   22.0988 C   0  0  0  0  0  0  0  0  0  0  0  0
   38.8164  -18.5730   20.8295 F   0  0  0  0  0  0  0  0  0  0  0  0
   40.4279  -17.6197   22.2396 C   0  0  0  0  0  0  0  0  0  0  0  0
   41.0617  -17.2222   21.1099 F   0  0  0  0  0  0  0  0  0  0  0  0
   40.9379  -17.3241   23.4908 C   0  0  0  0  0  0  0  0  0  0  0  0
   40.2528  -17.7513   24.6088 C   0  0  0  0  0  0  0  0  0  0  0  0
   40.7309  -17.4676   25.8479 F   0  0  0  0  0  0  0  0  0  0  0  0
 23 24  1  0  0  0
 24 25  1  0  0  0
 25 26  1  0  0  0
 26 27  2  0  0  0
 27 28  1  0  0  0
 28 22  1  0  0  0
 22  1  1  0  0  0
  1  2  1  0  0  0
  2  3  2  0  0  0
  2  4  1  0  0  0
  4  5  2  0  0  0
  5  9  1  0  0  0
  9 11  1  0  0  0
 11 12  2  0  0  0
 12 13  1  0  0  0
 13 14  2  0  0  0
 14 15  1  0  0  0
 15 16  1  0  0  0
 15 17  1  0  0  0
 17 18  2  0  0  0
 18 19  1  0  0  0
 19 20  2  0  0  0
 20 21  1  0  0  0
  5  6  1  0  0  0
  6 30  1  0  0  0
 30 31  1  0  0  0
 31 32  2  0  0  0
 32 33  1  0  0  0
 33 34  1  0  0  0
 33 35  2  0  0  0
 35 36  1  0  0  0
 35 37  1  0  0  0
 37 38  2  0  0  0
 38 39  1  0  0  0
  6  7  1  0  0  0
  7  8  2  0  0  0
 28 24  2  0  0  0
  7  1  1  0  0  0
 20 11  1  0  0  0
 38 31  1  0  0  0
 18 13  1  0  0  0
 25 29  1  0  0  0
  9 10  1  0  0  0
M  END
> <minimizedAffinity>
-6.69024

> <minimizedRMSD>
1.89346

$$$$



 39 43  0  0  0  0  0  0  0  0999 V2000
   35.7763  -17.0459   25.5036 N   0  0  0  0  0  0  0  0  0  0  0  0
   34.9697  -18.0129   25.0843 C   0  0  0  0  0  0  0  0  0  0  0  0
   33.6359  -17.8354   24.9953 O   0  0  0  0  0  0  0  0  0  0  0  0
   35.4768  -19.2147   24.7977 N   0  0  0  0  0  0  0  0  0  0  0  0
   36.7641  -19.4068   24.8868 C   0  0  0  0  0  0  0  0  0  0  0  0
   37.5810  -18.4369   25.2946 N   0  0  0  0  0  0  0  0  0  0  0  0
   37.0803  -17.2399   25.5997 C   0  0  0  0  0  0  0  0  0  0  0  0
   37.8018  -16.3705   25.9805 O   0  0  0  0  0  0  0  0  0  0  0  0
   37.2581  -20.7131   24.5225 N   0  0  0  0  0  0  0  0  0  0  0  0
   38.2243  -20.9017   24.5082 H   0  0  0  0  0  0  0  0  0  0  0  0
   36.2925  -21.7427   24.1774 C   0  0  0  0  0  0  0  0  0  0  0  0
   35.5932  -22.3608   25.2215 C   0  0  0  0  0  0  0  0  0  0  0  0
   34.6372  -23.3567   24.9294 C   0  0  0  0  0  0  0  0  0  0  0  0
   33.7590  -24.1675   25.7216 C   0  0  0  0  0  0  0  0  0  0  0  0
   33.0815  -24.9339   24.8900 N   0  0  0  0  0  0  0  0  0  0  0  0
   32.0814  -25.9062   25.2741 C   0  0  0  0  0  0  0  0  0  0  0  0
   33.4393  -24.6859   23.6307 N   0  0  0  0  0  0  0  0  0  0  0  0
   34.3894  -23.7415   23.6138 C   0  0  0  0  0  0  0  0  0  0  0  0
   35.0894  -23.1219   22.5533 C   0  0  0  0  0  0  0  0  0  0  0  0
   36.0284  -22.1419   22.8435 C   0  0  0  0  0  0  0  0  0  0  0  0
   36.8865  -21.3906   21.4820 Cl  0  0  0  0  0  0  0  0  0  0  0  0
   35.2016  -15.7389   25.7496 C   0  0  0  0  0  0  0  0  0  0  0  0
   32.8325  -13.4581   25.1736 C   0  0  0  0  0  0  0  0  0  0  0  0
   33.7213  -14.2022   24.2507 C   0  0  0  0  0  0  0  0  0  0  0  0
   33.6731  -14.0083   22.8964 N   0  0  0  0  0  0  0  0  0  0  0  0
   34.5354  -14.7722   22.2131 N   0  0  0  0  0  0  0  0  0  0  0  0
   35.1727  -15.4582   23.1621 C   0  0  0  0  0  0  0  0  0  0  0  0
   34.7095  -15.1497   24.4645 C   0  0  0  0  0  0  0  0  0  0  0  0
   33.0623  -13.3677   22.4654 H   0  0  0  0  0  0  0  0  0  0  0  0
   39.0140  -18.6621   25.4054 C   0  0  0  0  0  0  0  0  0  0  0  0
   39.7193  -18.2423   24.1192 C   0  0  0  0  0  0  0  0  0  0  0  0
   39.1349  -18.4571   22.8654 C   0  0  0  0  0  0  0  0  0  0  0  0
   39.8073  -18.0406   21.7290 C   0  0  0  0  0  0  0  0  0  0  0  0
   39.2995  -18.2143   20.4742 F   0  0  0  0  0  0  0  0  0  0  0  0
   41.0451  -17.4445   21.8360 C   0  0  0  0  0  0  0  0  0  0  0  0
   41.6605  -17.0639   20.6904 F   0  0  0  0  0  0  0  0  0  0  0  0
   41.6319  -17.2335   23.0704 C   0  0  0  0  0  0  0  0  0  0  0  0
   40.9622  -17.6391   24.2058 C   0  0  0  0  0  0  0  0  0  0  0  0
   41.5159  -17.4368   25.4294 F   0  0  0  0  0  0  0  0  0  0  0  0
 23 24  1  0  0  0
 24 25  1  0  0  0
 25 26  1  0  0  0
 26 27  2  0  0  0
 27 28  1  0  0  0
 28 22  1  0  0  0
 22  1  1  0  0  0
  1  2  1  0  0  0
  2  3  2  0  0  0
  2  4  1  0  0  0
  4  5  2  0  0  0
  5  9  1  0  0  0
  9 11  1  0  0  0
 11 12  2  0  0  0
 12 13  1  0  0  0
 13 14  2  0  0  0
 14 15  1  0  0  0
 15 16  1  0  0  0
 15 17  1  0  0  0
 17 18  2  0  0  0
 18 19  1  0  0  0
 19 20  2  0  0  0
 20 21  1  0  0  0
  5  6  1  0  0  0
  6 30  1  0  0  0
 30 31  1  0  0  0
 31 32  2  0  0  0
 32 33  1  0  0  0
 33 34  1  0  0  0
 33 35  2  0  0  0
 35 36  1  0  0  0
 35 37  1  0  0  0
 37 38  2  0  0  0
 38 39  1  0  0  0
  6  7  1  0  0  0
  7  8  2  0  0  0
 28 24  2  0  0  0
  7  1  1  0  0  0
 20 11  1  0  0  0
 38 31  1  0  0  0
 18 13  1  0  0  0
 25 29  1  0  0  0
  9 10  1  0  0  0
M  END
> <minimizedAffinity>
-8.88916

> <minimizedRMSD>
2.04287

$$$$



 39 43  0  0  0  0  0  0  0  0999 V2000
   35.0625  -16.4064   23.3560 N   0  0  0  0  0  0  0  0  0  0  0  0
   34.4189  -17.5345   23.0832 C   0  0  0  0  0  0  0  0  0  0  0  0
   33.2364  -17.5380   22.4351 O   0  0  0  0  0  0  0  0  0  0  0  0
   34.9198  -18.6974   23.5084 N   0  0  0  0  0  0  0  0  0  0  0  0
   36.0588  -18.7120   24.1445 C   0  0  0  0  0  0  0  0  0  0  0  0
   36.7162  -17.5847   24.4109 N   0  0  0  0  0  0  0  0  0  0  0  0
   36.2140  -16.4188   24.0053 C   0  0  0  0  0  0  0  0  0  0  0  0
   36.7878  -15.4031   24.2524 O   0  0  0  0  0  0  0  0  0  0  0  0
   36.5705  -20.0019   24.5414 N   0  0  0  0  0  0  0  0  0  0  0  0
   37.4135  -20.0778   25.0442 H   0  0  0  0  0  0  0  0  0  0  0  0
   35.8093  -21.1856   24.1796 C   0  0  0  0  0  0  0  0  0  0  0  0
   34.9653  -21.7427   25.1483 C   0  0  0  0  0  0  0  0  0  0  0  0
   34.1986  -22.8850   24.8343 C   0  0  0  0  0  0  0  0  0  0  0  0
   33.2544  -23.6886   25.5546 C   0  0  0  0  0  0  0  0  0  0  0  0
   32.8523  -24.6420   24.7378 N   0  0  0  0  0  0  0  0  0  0  0  0
   31.8940  -25.6754   25.0651 C   0  0  0  0  0  0  0  0  0  0  0  0
   33.4479  -24.5220   23.5520 N   0  0  0  0  0  0  0  0  0  0  0  0
   34.2808  -23.4730   23.5743 C   0  0  0  0  0  0  0  0  0  0  0  0
   35.1289  -22.9166   22.5895 C   0  0  0  0  0  0  0  0  0  0  0  0
   35.8811  -21.7925   22.9009 C   0  0  0  0  0  0  0  0  0  0  0  0
   36.9348  -21.1269   21.6356 Cl  0  0  0  0  0  0  0  0  0  0  0  0
   34.5219  -15.1695   22.8300 C   0  0  0  0  0  0  0  0  0  0  0  0
   33.7158  -16.1102   25.9231 C   0  0  0  0  0  0  0  0  0  0  0  0
   33.4877  -14.8380   25.1972 C   0  0  0  0  0  0  0  0  0  0  0  0
   32.8530  -13.7785   25.7865 N   0  0  0  0  0  0  0  0  0  0  0  0
   32.7319  -12.7104   24.9849 N   0  0  0  0  0  0  0  0  0  0  0  0
   33.3098  -13.1020   23.8488 C   0  0  0  0  0  0  0  0  0  0  0  0
   33.8139  -14.4234   23.9167 C   0  0  0  0  0  0  0  0  0  0  0  0
   32.5170  -13.7985   26.7116 H   0  0  0  0  0  0  0  0  0  0  0  0
   37.9789  -17.6071   25.1330 C   0  0  0  0  0  0  0  0  0  0  0  0
   39.1481  -17.6981   24.1568 C   0  0  0  0  0  0  0  0  0  0  0  0
   38.9407  -17.9378   22.7934 C   0  0  0  0  0  0  0  0  0  0  0  0
   40.0340  -17.9925   21.9455 C   0  0  0  0  0  0  0  0  0  0  0  0
   39.9093  -18.2202   20.6056 F   0  0  0  0  0  0  0  0  0  0  0  0
   41.3079  -17.8358   22.4469 C   0  0  0  0  0  0  0  0  0  0  0  0
   42.3406  -17.9063   21.5725 F   0  0  0  0  0  0  0  0  0  0  0  0
   41.5219  -17.6039   23.7935 C   0  0  0  0  0  0  0  0  0  0  0  0
   40.4356  -17.5403   24.6406 C   0  0  0  0  0  0  0  0  0  0  0  0
   40.6206  -17.3075   25.9658 F   0  0  0  0  0  0  0  0  0  0  0  0
 23 24  1  0  0  0
 24 25  1  0  0  0
 25 26  1  0  0  0
 26 27  2  0  0  0
 27 28  1  0  0  0
 28 22  1  0  0  0
 22  1  1  0  0  0
  1  2  1  0  0  0
  2  3  2  0  0  0
  2  4  1  0  0  0
  4  5  2  0  0  0
  5  9  1  0  0  0
  9 11  1  0  0  0
 11 12  2  0  0  0
 12 13  1  0  0  0
 13 14  2  0  0  0
 14 15  1  0  0  0
 15 16  1  0  0  0
 15 17  1  0  0  0
 17 18  2  0  0  0
 18 19  1  0  0  0
 19 20  2  0  0  0
 20 21  1  0  0  0
  5  6  1  0  0  0
  6 30  1  0  0  0
 30 31  1  0  0  0
 31 32  2  0  0  0
 32 33  1  0  0  0
 33 34  1  0  0  0
 33 35  2  0  0  0
 35 36  1  0  0  0
 35 37  1  0  0  0
 37 38  2  0  0  0
 38 39  1  0  0  0
  6  7  1  0  0  0
  7  8  2  0  0  0
 28 24  2  0  0  0
  7  1  1  0  0  0
 20 11  1  0  0  0
 38 31  1  0  0  0
 18 13  1  0  0  0
 25 29  1  0  0  0
  9 10  1  0  0  0
M  END
> <minimizedAffinity>
-10.71037

> <minimizedRMSD>
0.79678

$$$$



 39 43  0  0  0  0  0  0  0  0999 V2000
   34.9679  -16.3657   23.5118 N   0  0  0  0  0  0  0  0  0  0  0  0
   34.3553  -17.4955   23.1804 C   0  0  0  0  0  0  0  0  0  0  0  0
   33.1901  -17.4981   22.5017 O   0  0  0  0  0  0  0  0  0  0  0  0
   34.8694  -18.6631   23.5753 N   0  0  0  0  0  0  0  0  0  0  0  0
   35.9917  -18.6789   24.2403 C   0  0  0  0  0  0  0  0  0  0  0  0
   36.6183  -17.5495   24.5656 N   0  0  0  0  0  0  0  0  0  0  0  0
   36.1021  -16.3793   24.1904 C   0  0  0  0  0  0  0  0  0  0  0  0
   36.6481  -15.3626   24.4901 O   0  0  0  0  0  0  0  0  0  0  0  0
   36.5202  -19.9723   24.6025 N   0  0  0  0  0  0  0  0  0  0  0  0
   37.3704  -20.0512   25.0925 H   0  0  0  0  0  0  0  0  0  0  0  0
   35.7647  -21.1549   24.2251 C   0  0  0  0  0  0  0  0  0  0  0  0
   34.9213  -21.7270   25.1856 C   0  0  0  0  0  0  0  0  0  0  0  0
   34.1600  -22.8687   24.8565 C   0  0  0  0  0  0  0  0  0  0  0  0
   33.2179  -23.6848   25.5654 C   0  0  0  0  0  0  0  0  0  0  0  0
   32.8215  -24.6302   24.7366 N   0  0  0  0  0  0  0  0  0  0  0  0
   31.8670  -25.6715   25.0497 C   0  0  0  0  0  0  0  0  0  0  0  0
   33.4188  -24.4937   23.5535 N   0  0  0  0  0  0  0  0  0  0  0  0
   34.2472  -23.4414   23.5899 C   0  0  0  0  0  0  0  0  0  0  0  0
   35.0948  -22.8698   22.6134 C   0  0  0  0  0  0  0  0  0  0  0  0
   35.8416  -21.7463   22.9396 C   0  0  0  0  0  0  0  0  0  0  0  0
   36.8949  -21.0612   21.6843 Cl  0  0  0  0  0  0  0  0  0  0  0  0
   34.4149  -15.1211   23.0178 C   0  0  0  0  0  0  0  0  0  0  0  0
   33.4387  -11.9502   23.3041 C   0  0  0  0  0  0  0  0  0  0  0  0
   33.2508  -13.1151   24.2006 C   0  0  0  0  0  0  0  0  0  0  0  0
   32.5811  -13.0075   25.3890 N   0  0  0  0  0  0  0  0  0  0  0  0
   32.5087  -14.1581   26.0717 N   0  0  0  0  0  0  0  0  0  0  0  0
   33.1525  -15.0294   25.2938 C   0  0  0  0  0  0  0  0  0  0  0  0
   33.6492  -14.4386   24.1066 C   0  0  0  0  0  0  0  0  0  0  0  0
   32.1893  -12.1641   25.7120 H   0  0  0  0  0  0  0  0  0  0  0  0
   37.8622  -17.5736   25.3195 C   0  0  0  0  0  0  0  0  0  0  0  0
   39.0558  -17.6635   24.3731 C   0  0  0  0  0  0  0  0  0  0  0  0
   38.8863  -17.9481   23.0132 C   0  0  0  0  0  0  0  0  0  0  0  0
   40.0001  -17.9998   22.1922 C   0  0  0  0  0  0  0  0  0  0  0  0
   39.9124  -18.2695   20.8572 F   0  0  0  0  0  0  0  0  0  0  0  0
   41.2577  -17.7963   22.7175 C   0  0  0  0  0  0  0  0  0  0  0  0
   42.3120  -17.8661   21.8692 F   0  0  0  0  0  0  0  0  0  0  0  0
   41.4344  -17.5199   24.0610 C   0  0  0  0  0  0  0  0  0  0  0  0
   40.3273  -17.4590   24.8811 C   0  0  0  0  0  0  0  0  0  0  0  0
   40.4756  -17.1831   26.2026 F   0  0  0  0  0  0  0  0  0  0  0  0
 23 24  1  0  0  0
 24 25  1  0  0  0
 25 26  1  0  0  0
 26 27  2  0  0  0
 27 28  1  0  0  0
 28 22  1  0  0  0
 22  1  1  0  0  0
  1  2  1  0  0  0
  2  3  2  0  0  0
  2  4  1  0  0  0
  4  5  2  0  0  0
  5  9  1  0  0  0
  9 11  1  0  0  0
 11 12  2  0  0  0
 12 13  1  0  0  0
 13 14  2  0  0  0
 14 15  1  0  0  0
 15 16  1  0  0  0
 15 17  1  0  0  0
 17 18  2  0  0  0
 18 19  1  0  0  0
 19 20  2  0  0  0
 20 21  1  0  0  0
  5  6  1  0  0  0
  6 30  1  0  0  0
 30 31  1  0  0  0
 31 32  2  0  0  0
 32 33  1  0  0  0
 33 34  1  0  0  0
 33 35  2  0  0  0
 35 36  1  0  0  0
 35 37  1  0  0  0
 37 38  2  0  0  0
 38 39  1  0  0  0
  6  7  1  0  0  0
  7  8  2  0  0  0
 28 24  2  0  0  0
  7  1  1  0  0  0
 20 11  1  0  0  0
 38 31  1  0  0  0
 18 13  1  0  0  0
 25 29  1  0  0  0
  9 10  1  0  0  0
M  END
> <minimizedAffinity>
-10.55357

> <minimizedRMSD>
0.66641

$$$$



 39 43  0  0  0  0  0  0  0  0999 V2000
   34.9868  -17.5518   25.5881 N   0  0  0  0  0  0  0  0  0  0  0  0
   34.2773  -18.6155   25.2332 C   0  0  0  0  0  0  0  0  0  0  0  0
   32.9387  -18.5571   25.0809 O   0  0  0  0  0  0  0  0  0  0  0  0
   34.8888  -19.7928   25.0783 N   0  0  0  0  0  0  0  0  0  0  0  0
   36.1823  -19.8697   25.2304 C   0  0  0  0  0  0  0  0  0  0  0  0
   36.9025  -18.8033   25.5740 N   0  0  0  0  0  0  0  0  0  0  0  0
   36.2970  -17.6288   25.7478 C   0  0  0  0  0  0  0  0  0  0  0  0
   36.9311  -16.6721   26.0708 O   0  0  0  0  0  0  0  0  0  0  0  0
   36.7921  -21.1588   25.0076 N   0  0  0  0  0  0  0  0  0  0  0  0
   37.7689  -21.2709   25.0590 H   0  0  0  0  0  0  0  0  0  0  0  0
   35.9274  -22.2867   24.7056 C   0  0  0  0  0  0  0  0  0  0  0  0
   35.3305  -22.9599   25.7787 C   0  0  0  0  0  0  0  0  0  0  0  0
   34.4734  -24.0527   25.5289 C   0  0  0  0  0  0  0  0  0  0  0  0
   33.7103  -24.9392   26.3583 C   0  0  0  0  0  0  0  0  0  0  0  0
   33.0887  -25.7820   25.5576 N   0  0  0  0  0  0  0  0  0  0  0  0
   32.2076  -26.8472   25.9848 C   0  0  0  0  0  0  0  0  0  0  0  0
   33.3773  -25.5149   24.2846 N   0  0  0  0  0  0  0  0  0  0  0  0
   34.2236  -24.4781   24.2263 C   0  0  0  0  0  0  0  0  0  0  0  0
   34.8206  -23.8035   23.1366 C   0  0  0  0  0  0  0  0  0  0  0  0
   35.6623  -22.7284   23.3853 C   0  0  0  0  0  0  0  0  0  0  0  0
   36.3929  -21.9105   21.9882 Cl  0  0  0  0  0  0  0  0  0  0  0  0
   34.3019  -16.2792   25.6904 C   0  0  0  0  0  0  0  0  0  0  0  0
   33.6305  -17.1548   22.5407 C   0  0  0  0  0  0  0  0  0  0  0  0
   34.1762  -15.9011   23.1132 C   0  0  0  0  0  0  0  0  0  0  0  0
   34.5212  -14.8397   22.3207 N   0  0  0  0  0  0  0  0  0  0  0  0
   34.9873  -13.7862   23.0063 N   0  0  0  0  0  0  0  0  0  0  0  0
   34.9567  -14.1961   24.2742 C   0  0  0  0  0  0  0  0  0  0  0  0
   34.4610  -15.5152   24.4125 C   0  0  0  0  0  0  0  0  0  0  0  0
   34.4350  -14.8490   21.3400 H   0  0  0  0  0  0  0  0  0  0  0  0
   38.3427  -18.8992   25.7558 C   0  0  0  0  0  0  0  0  0  0  0  0
   39.0691  -18.4592   24.4882 C   0  0  0  0  0  0  0  0  0  0  0  0
   38.5627  -18.7589   23.2181 C   0  0  0  0  0  0  0  0  0  0  0  0
   39.2499  -18.3205   22.0988 C   0  0  0  0  0  0  0  0  0  0  0  0
   38.8164  -18.5730   20.8295 F   0  0  0  0  0  0  0  0  0  0  0  0
   40.4279  -17.6197   22.2396 C   0  0  0  0  0  0  0  0  0  0  0  0
   41.0617  -17.2222   21.1099 F   0  0  0  0  0  0  0  0  0  0  0  0
   40.9379  -17.3241   23.4908 C   0  0  0  0  0  0  0  0  0  0  0  0
   40.2528  -17.7513   24.6088 C   0  0  0  0  0  0  0  0  0  0  0  0
   40.7309  -17.4676   25.8479 F   0  0  0  0  0  0  0  0  0  0  0  0
 23 24  1  0  0  0
 24 25  1  0  0  0
 25 26  1  0  0  0
 26 27  2  0  0  0
 27 28  1  0  0  0
 28 22  1  0  0  0
 22  1  1  0  0  0
  1  2  1  0  0  0
  2  3  2  0  0  0
  2  4  1  0  0  0
  4  5  2  0  0  0
  5  9  1  0  0  0
  9 11  1  0  0  0
 11 12  2  0  0  0
 12 13  1  0  0  0
 13 14  2  0  0  0
 14 15  1  0  0  0
 15 16  1  0  0  0
 15 17  1  0  0  0
 17 18  2  0  0  0
 18 19  1  0  0  0
 19 20  2  0  0  0
 20 21  1  0  0  0
  5  6  1  0  0  0
  6 30  1  0  0  0
 30 31  1  0  0  0
 31 32  2  0  0  0
 32 33  1  0  0  0
 33 34  1  0  0  0
 33 35  2  0  0  0
 35 36  1  0  0  0
 35 37  1  0  0  0
 37 38  2  0  0  0
 38 39  1  0  0  0
  6  7  1  0  0  0
  7  8  2  0  0  0
 28 24  2  0  0  0
  7  1  1  0  0  0
 20 11  1  0  0  0
 38 31  1  0  0  0
 18 13  1  0  0  0
 25 29  1  0  0  0
  9 10  1  0  0  0
M  END
> <minimizedAffinity>
-6.69024

> <minimizedRMSD>
1.89346

$$$$



 39 43  0  0  0  0  0  0  0  0999 V2000
   35.0625  -16.4064   23.3560 N   0  0  0  0  0  0  0  0  0  0  0  0
   34.4189  -17.5345   23.0832 C   0  0  0  0  0  0  0  0  0  0  0  0
   33.2364  -17.5380   22.4351 O   0  0  0  0  0  0  0  0  0  0  0  0
   34.9198  -18.6974   23.5084 N   0  0  0  0  0  0  0  0  0  0  0  0
   36.0588  -18.7120   24.1445 C   0  0  0  0  0  0  0  0  0  0  0  0
   36.7162  -17.5847   24.4109 N   0  0  0  0  0  0  0  0  0  0  0  0
   36.2140  -16.4188   24.0053 C   0  0  0  0  0  0  0  0  0  0  0  0
   36.7878  -15.4031   24.2524 O   0  0  0  0  0  0  0  0  0  0  0  0
   36.5705  -20.0019   24.5414 N   0  0  0  0  0  0  0  0  0  0  0  0
   37.4135  -20.0778   25.0442 H   0  0  0  0  0  0  0  0  0  0  0  0
   35.8093  -21.1856   24.1796 C   0  0  0  0  0  0  0  0  0  0  0  0
   34.9653  -21.7427   25.1483 C   0  0  0  0  0  0  0  0  0  0  0  0
   34.1986  -22.8850   24.8343 C   0  0  0  0  0  0  0  0  0  0  0  0
   33.2544  -23.6886   25.5546 C   0  0  0  0  0  0  0  0  0  0  0  0
   32.8523  -24.6420   24.7378 N   0  0  0  0  0  0  0  0  0  0  0  0
   31.8940  -25.6754   25.0651 C   0  0  0  0  0  0  0  0  0  0  0  0
   33.4479  -24.5220   23.5520 N   0  0  0  0  0  0  0  0  0  0  0  0
   34.2808  -23.4730   23.5743 C   0  0  0  0  0  0  0  0  0  0  0  0
   35.1289  -22.9166   22.5895 C   0  0  0  0  0  0  0  0  0  0  0  0
   35.8811  -21.7925   22.9009 C   0  0  0  0  0  0  0  0  0  0  0  0
   36.9348  -21.1269   21.6356 Cl  0  0  0  0  0  0  0  0  0  0  0  0
   34.5219  -15.1695   22.8300 C   0  0  0  0  0  0  0  0  0  0  0  0
   33.7158  -16.1102   25.9231 C   0  0  0  0  0  0  0  0  0  0  0  0
   33.4877  -14.8380   25.1972 C   0  0  0  0  0  0  0  0  0  0  0  0
   32.8530  -13.7785   25.7865 N   0  0  0  0  0  0  0  0  0  0  0  0
   32.7319  -12.7104   24.9849 N   0  0  0  0  0  0  0  0  0  0  0  0
   33.3098  -13.1020   23.8488 C   0  0  0  0  0  0  0  0  0  0  0  0
   33.8139  -14.4234   23.9167 C   0  0  0  0  0  0  0  0  0  0  0  0
   32.5170  -13.7985   26.7116 H   0  0  0  0  0  0  0  0  0  0  0  0
   37.9789  -17.6071   25.1330 C   0  0  0  0  0  0  0  0  0  0  0  0
   39.1481  -17.6981   24.1568 C   0  0  0  0  0  0  0  0  0  0  0  0
   38.9407  -17.9378   22.7934 C   0  0  0  0  0  0  0  0  0  0  0  0
   40.0340  -17.9925   21.9455 C   0  0  0  0  0  0  0  0  0  0  0  0
   39.9093  -18.2202   20.6056 F   0  0  0  0  0  0  0  0  0  0  0  0
   41.3079  -17.8358   22.4469 C   0  0  0  0  0  0  0  0  0  0  0  0
   42.3406  -17.9063   21.5725 F   0  0  0  0  0  0  0  0  0  0  0  0
   41.5219  -17.6039   23.7935 C   0  0  0  0  0  0  0  0  0  0  0  0
   40.4356  -17.5403   24.6406 C   0  0  0  0  0  0  0  0  0  0  0  0
   40.6206  -17.3075   25.9658 F   0  0  0  0  0  0  0  0  0  0  0  0
 23 24  1  0  0  0
 24 25  1  0  0  0
 25 26  1  0  0  0
 26 27  2  0  0  0
 27 28  1  0  0  0
 28 22  1  0  0  0
 22  1  1  0  0  0
  1  2  1  0  0  0
  2  3  2  0  0  0
  2  4  1  0  0  0
  4  5  2  0  0  0
  5  9  1  0  0  0
  9 11  1  0  0  0
 11 12  2  0  0  0
 12 13  1  0  0  0
 13 14  2  0  0  0
 14 15  1  0  0  0
 15 16  1  0  0  0
 15 17  1  0  0  0
 17 18  2  0  0  0
 18 19  1  0  0  0
 19 20  2  0  0  0
 20 21  1  0  0  0
  5  6  1  0  0  0
  6 30  1  0  0  0
 30 31  1  0  0  0
 31 32  2  0  0  0
 32 33  1  0  0  0
 33 34  1  0  0  0
 33 35  2  0  0  0
 35 36  1  0  0  0
 35 37  1  0  0  0
 37 38  2  0  0  0
 38 39  1  0  0  0
  6  7  1  0  0  0
  7  8  2  0  0  0
 28 24  2  0  0  0
  7  1  1  0  0  0
 20 11  1  0  0  0
 38 31  1  0  0  0
 18 13  1  0  0  0
 25 29  1  0  0  0
  9 10  1  0  0  0
M  END
> <minimizedAffinity>
-10.71037

> <minimizedRMSD>
0.79678

$$$$



 39 43  0  0  0  0  0  0  0  0999 V2000
   35.0625  -16.4064   23.3560 N   0  0  0  0  0  0  0  0  0  0  0  0
   34.4189  -17.5345   23.0832 C   0  0  0  0  0  0  0  0  0  0  0  0
   33.2364  -17.5380   22.4351 O   0  0  0  0  0  0  0  0  0  0  0  0
   34.9198  -18.6974   23.5084 N   0  0  0  0  0  0  0  0  0  0  0  0
   36.0588  -18.7120   24.1445 C   0  0  0  0  0  0  0  0  0  0  0  0
   36.7162  -17.5847   24.4109 N   0  0  0  0  0  0  0  0  0  0  0  0
   36.2140  -16.4188   24.0053 C   0  0  0  0  0  0  0  0  0  0  0  0
   36.7878  -15.4031   24.2524 O   0  0  0  0  0  0  0  0  0  0  0  0
   36.5705  -20.0019   24.5414 N   0  0  0  0  0  0  0  0  0  0  0  0
   37.4135  -20.0778   25.0442 H   0  0  0  0  0  0  0  0  0  0  0  0
   35.8093  -21.1856   24.1796 C   0  0  0  0  0  0  0  0  0  0  0  0
   34.9653  -21.7427   25.1483 C   0  0  0  0  0  0  0  0  0  0  0  0
   34.1986  -22.8850   24.8343 C   0  0  0  0  0  0  0  0  0  0  0  0
   33.2544  -23.6886   25.5546 C   0  0  0  0  0  0  0  0  0  0  0  0
   32.8523  -24.6420   24.7378 N   0  0  0  0  0  0  0  0  0  0  0  0
   31.8940  -25.6754   25.0651 C   0  0  0  0  0  0  0  0  0  0  0  0
   33.4479  -24.5220   23.5520 N   0  0  0  0  0  0  0  0  0  0  0  0
   34.2808  -23.4730   23.5743 C   0  0  0  0  0  0  0  0  0  0  0  0
   35.1289  -22.9166   22.5895 C   0  0  0  0  0  0  0  0  0  0  0  0
   35.8811  -21.7925   22.9009 C   0  0  0  0  0  0  0  0  0  0  0  0
   36.9348  -21.1269   21.6356 Cl  0  0  0  0  0  0  0  0  0  0  0  0
   34.5219  -15.1695   22.8300 C   0  0  0  0  0  0  0  0  0  0  0  0
   33.7158  -16.1102   25.9231 C   0  0  0  0  0  0  0  0  0  0  0  0
   33.4877  -14.8380   25.1972 C   0  0  0  0  0  0  0  0  0  0  0  0
   32.8530  -13.7785   25.7865 N   0  0  0  0  0  0  0  0  0  0  0  0
   32.7319  -12.7104   24.9849 N   0  0  0  0  0  0  0  0  0  0  0  0
   33.3098  -13.1020   23.8488 C   0  0  0  0  0  0  0  0  0  0  0  0
   33.8139  -14.4234   23.9167 C   0  0  0  0  0  0  0  0  0  0  0  0
   32.5170  -13.7985   26.7116 H   0  0  0  0  0  0  0  0  0  0  0  0
   37.9789  -17.6071   25.1330 C   0  0  0  0  0  0  0  0  0  0  0  0
   39.1481  -17.6981   24.1568 C   0  0  0  0  0  0  0  0  0  0  0  0
   38.9407  -17.9378   22.7934 C   0  0  0  0  0  0  0  0  0  0  0  0
   40.0340  -17.9925   21.9455 C   0  0  0  0  0  0  0  0  0  0  0  0
   39.9093  -18.2202   20.6056 F   0  0  0  0  0  0  0  0  0  0  0  0
   41.3079  -17.8358   22.4469 C   0  0  0  0  0  0  0  0  0  0  0  0
   42.3406  -17.9063   21.5725 F   0  0  0  0  0  0  0  0  0  0  0  0
   41.5219  -17.6039   23.7935 C   0  0  0  0  0  0  0  0  0  0  0  0
   40.4356  -17.5403   24.6406 C   0  0  0  0  0  0  0  0  0  0  0  0
   40.6206  -17.3075   25.9658 F   0  0  0  0  0  0  0  0  0  0  0  0
 23 24  1  0  0  0
 24 25  1  0  0  0
 25 26  1  0  0  0
 26 27  2  0  0  0
 27 28  1  0  0  0
 28 22  1  0  0  0
 22  1  1  0  0  0
  1  2  1  0  0  0
  2  3  2  0  0  0
  2  4  1  0  0  0
  4  5  2  0  0  0
  5  9  1  0  0  0
  9 11  1  0  0  0
 11 12  2  0  0  0
 12 13  1  0  0  0
 13 14  2  0  0  0
 14 15  1  0  0  0
 15 16  1  0  0  0
 15 17  1  0  0  0
 17 18  2  0  0  0
 18 19  1  0  0  0
 19 20  2  0  0  0
 20 21  1  0  0  0
  5  6  1  0  0  0
  6 30  1  0  0  0
 30 31  1  0  0  0
 31 32  2  0  0  0
 32 33  1  0  0  0
 33 34  1  0  0  0
 33 35  2  0  0  0
 35 36  1  0  0  0
 35 37  1  0  0  0
 37 38  2  0  0  0
 38 39  1  0  0  0
  6  7  1  0  0  0
  7  8  2  0  0  0
 28 24  2  0  0  0
  7  1  1  0  0  0
 20 11  1  0  0  0
 38 31  1  0  0  0
 18 13  1  0  0  0
 25 29  1  0  0  0
  9 10  1  0  0  0
M  END
> <minimizedAffinity>
-10.71037

> <minimizedRMSD>
0.79678

$$$$



 39 43  0  0  0  0  0  0  0  0999 V2000
   34.9868  -17.5518   25.5881 N   0  0  0  0  0  0  0  0  0  0  0  0
   34.2773  -18.6155   25.2332 C   0  0  0  0  0  0  0  0  0  0  0  0
   32.9387  -18.5571   25.0809 O   0  0  0  0  0  0  0  0  0  0  0  0
   34.8888  -19.7928   25.0783 N   0  0  0  0  0  0  0  0  0  0  0  0
   36.1823  -19.8697   25.2304 C   0  0  0  0  0  0  0  0  0  0  0  0
   36.9025  -18.8033   25.5740 N   0  0  0  0  0  0  0  0  0  0  0  0
   36.2970  -17.6288   25.7478 C   0  0  0  0  0  0  0  0  0  0  0  0
   36.9311  -16.6721   26.0708 O   0  0  0  0  0  0  0  0  0  0  0  0
   36.7921  -21.1588   25.0076 N   0  0  0  0  0  0  0  0  0  0  0  0
   37.7689  -21.2709   25.0590 H   0  0  0  0  0  0  0  0  0  0  0  0
   35.9274  -22.2867   24.7056 C   0  0  0  0  0  0  0  0  0  0  0  0
   35.3305  -22.9599   25.7787 C   0  0  0  0  0  0  0  0  0  0  0  0
   34.4734  -24.0527   25.5289 C   0  0  0  0  0  0  0  0  0  0  0  0
   33.7103  -24.9392   26.3583 C   0  0  0  0  0  0  0  0  0  0  0  0
   33.0887  -25.7820   25.5576 N   0  0  0  0  0  0  0  0  0  0  0  0
   32.2076  -26.8472   25.9848 C   0  0  0  0  0  0  0  0  0  0  0  0
   33.3773  -25.5149   24.2846 N   0  0  0  0  0  0  0  0  0  0  0  0
   34.2236  -24.4781   24.2263 C   0  0  0  0  0  0  0  0  0  0  0  0
   34.8206  -23.8035   23.1366 C   0  0  0  0  0  0  0  0  0  0  0  0
   35.6623  -22.7284   23.3853 C   0  0  0  0  0  0  0  0  0  0  0  0
   36.3929  -21.9105   21.9882 Cl  0  0  0  0  0  0  0  0  0  0  0  0
   34.3019  -16.2792   25.6904 C   0  0  0  0  0  0  0  0  0  0  0  0
   33.6305  -17.1548   22.5407 C   0  0  0  0  0  0  0  0  0  0  0  0
   34.1762  -15.9011   23.1132 C   0  0  0  0  0  0  0  0  0  0  0  0
   34.5212  -14.8397   22.3207 N   0  0  0  0  0  0  0  0  0  0  0  0
   34.9873  -13.7862   23.0063 N   0  0  0  0  0  0  0  0  0  0  0  0
   34.9567  -14.1961   24.2742 C   0  0  0  0  0  0  0  0  0  0  0  0
   34.4610  -15.5152   24.4125 C   0  0  0  0  0  0  0  0  0  0  0  0
   34.4350  -14.8490   21.3400 H   0  0  0  0  0  0  0  0  0  0  0  0
   38.3427  -18.8992   25.7558 C   0  0  0  0  0  0  0  0  0  0  0  0
   39.0691  -18.4592   24.4882 C   0  0  0  0  0  0  0  0  0  0  0  0
   38.5627  -18.7589   23.2181 C   0  0  0  0  0  0  0  0  0  0  0  0
   39.2499  -18.3205   22.0988 C   0  0  0  0  0  0  0  0  0  0  0  0
   38.8164  -18.5730   20.8295 F   0  0  0  0  0  0  0  0  0  0  0  0
   40.4279  -17.6197   22.2396 C   0  0  0  0  0  0  0  0  0  0  0  0
   41.0617  -17.2222   21.1099 F   0  0  0  0  0  0  0  0  0  0  0  0
   40.9379  -17.3241   23.4908 C   0  0  0  0  0  0  0  0  0  0  0  0
   40.2528  -17.7513   24.6088 C   0  0  0  0  0  0  0  0  0  0  0  0
   40.7309  -17.4676   25.8479 F   0  0  0  0  0  0  0  0  0  0  0  0
 23 24  1  0  0  0
 24 25  1  0  0  0
 25 26  1  0  0  0
 26 27  2  0  0  0
 27 28  1  0  0  0
 28 22  1  0  0  0
 22  1  1  0  0  0
  1  2  1  0  0  0
  2  3  2  0  0  0
  2  4  1  0  0  0
  4  5  2  0  0  0
  5  9  1  0  0  0
  9 11  1  0  0  0
 11 12  2  0  0  0
 12 13  1  0  0  0
 13 14  2  0  0  0
 14 15  1  0  0  0
 15 16  1  0  0  0
 15 17  1  0  0  0
 17 18  2  0  0  0
 18 19  1  0  0  0
 19 20  2  0  0  0
 20 21  1  0  0  0
  5  6  1  0  0  0
  6 30  1  0  0  0
 30 31  1  0  0  0
 31 32  2  0  0  0
 32 33  1  0  0  0
 33 34  1  0  0  0
 33 35  2  0  0  0
 35 36  1  0  0  0
 35 37  1  0  0  0
 37 38  2  0  0  0
 38 39  1  0  0  0
  6  7  1  0  0  0
  7  8  2  0  0  0
 28 24  2  0  0  0
  7  1  1  0  0  0
 20 11  1  0  0  0
 38 31  1  0  0  0
 18 13  1  0  0  0
 25 29  1  0  0  0
  9 10  1  0  0  0
M  END
> <minimizedAffinity>
-6.69024

> <minimizedRMSD>
1.89346

$$$$



 39 43  0  0  0  0  0  0  0  0999 V2000
   34.9868  -17.5518   25.5881 N   0  0  0  0  0  0  0  0  0  0  0  0
   34.2773  -18.6155   25.2332 C   0  0  0  0  0  0  0  0  0  0  0  0
   32.9387  -18.5571   25.0809 O   0  0  0  0  0  0  0  0  0  0  0  0
   34.8888  -19.7928   25.0783 N   0  0  0  0  0  0  0  0  0  0  0  0
   36.1823  -19.8697   25.2304 C   0  0  0  0  0  0  0  0  0  0  0  0
   36.9025  -18.8033   25.5740 N   0  0  0  0  0  0  0  0  0  0  0  0
   36.2970  -17.6288   25.7478 C   0  0  0  0  0  0  0  0  0  0  0  0
   36.9311  -16.6721   26.0708 O   0  0  0  0  0  0  0  0  0  0  0  0
   36.7921  -21.1588   25.0076 N   0  0  0  0  0  0  0  0  0  0  0  0
   37.7689  -21.2709   25.0590 H   0  0  0  0  0  0  0  0  0  0  0  0
   35.9274  -22.2867   24.7056 C   0  0  0  0  0  0  0  0  0  0  0  0
   35.3305  -22.9599   25.7787 C   0  0  0  0  0  0  0  0  0  0  0  0
   34.4734  -24.0527   25.5289 C   0  0  0  0  0  0  0  0  0  0  0  0
   33.7103  -24.9392   26.3583 C   0  0  0  0  0  0  0  0  0  0  0  0
   33.0887  -25.7820   25.5576 N   0  0  0  0  0  0  0  0  0  0  0  0
   32.2076  -26.8472   25.9848 C   0  0  0  0  0  0  0  0  0  0  0  0
   33.3773  -25.5149   24.2846 N   0  0  0  0  0  0  0  0  0  0  0  0
   34.2236  -24.4781   24.2263 C   0  0  0  0  0  0  0  0  0  0  0  0
   34.8206  -23.8035   23.1366 C   0  0  0  0  0  0  0  0  0  0  0  0
   35.6623  -22.7284   23.3853 C   0  0  0  0  0  0  0  0  0  0  0  0
   36.3929  -21.9105   21.9882 Cl  0  0  0  0  0  0  0  0  0  0  0  0
   34.3019  -16.2792   25.6904 C   0  0  0  0  0  0  0  0  0  0  0  0
   33.6305  -17.1548   22.5407 C   0  0  0  0  0  0  0  0  0  0  0  0
   34.1762  -15.9011   23.1132 C   0  0  0  0  0  0  0  0  0  0  0  0
   34.5212  -14.8397   22.3207 N   0  0  0  0  0  0  0  0  0  0  0  0
   34.9873  -13.7862   23.0063 N   0  0  0  0  0  0  0  0  0  0  0  0
   34.9567  -14.1961   24.2742 C   0  0  0  0  0  0  0  0  0  0  0  0
   34.4610  -15.5152   24.4125 C   0  0  0  0  0  0  0  0  0  0  0  0
   34.4350  -14.8490   21.3400 H   0  0  0  0  0  0  0  0  0  0  0  0
   38.3427  -18.8992   25.7558 C   0  0  0  0  0  0  0  0  0  0  0  0
   39.0691  -18.4592   24.4882 C   0  0  0  0  0  0  0  0  0  0  0  0
   38.5627  -18.7589   23.2181 C   0  0  0  0  0  0  0  0  0  0  0  0
   39.2499  -18.3205   22.0988 C   0  0  0  0  0  0  0  0  0  0  0  0
   38.8164  -18.5730   20.8295 F   0  0  0  0  0  0  0  0  0  0  0  0
   40.4279  -17.6197   22.2396 C   0  0  0  0  0  0  0  0  0  0  0  0
   41.0617  -17.2222   21.1099 F   0  0  0  0  0  0  0  0  0  0  0  0
   40.9379  -17.3241   23.4908 C   0  0  0  0  0  0  0  0  0  0  0  0
   40.2528  -17.7513   24.6088 C   0  0  0  0  0  0  0  0  0  0  0  0
   40.7309  -17.4676   25.8479 F   0  0  0  0  0  0  0  0  0  0  0  0
 23 24  1  0  0  0
 24 25  1  0  0  0
 25 26  1  0  0  0
 26 27  2  0  0  0
 27 28  1  0  0  0
 28 22  1  0  0  0
 22  1  1  0  0  0
  1  2  1  0  0  0
  2  3  2  0  0  0
  2  4  1  0  0  0
  4  5  2  0  0  0
  5  9  1  0  0  0
  9 11  1  0  0  0
 11 12  2  0  0  0
 12 13  1  0  0  0
 13 14  2  0  0  0
 14 15  1  0  0  0
 15 16  1  0  0  0
 15 17  1  0  0  0
 17 18  2  0  0  0
 18 19  1  0  0  0
 19 20  2  0  0  0
 20 21  1  0  0  0
  5  6  1  0  0  0
  6 30  1  0  0  0
 30 31  1  0  0  0
 31 32  2  0  0  0
 32 33  1  0  0  0
 33 34  1  0  0  0
 33 35  2  0  0  0
 35 36  1  0  0  0
 35 37  1  0  0  0
 37 38  2  0  0  0
 38 39  1  0  0  0
  6  7  1  0  0  0
  7  8  2  0  0  0
 28 24  2  0  0  0
  7  1  1  0  0  0
 20 11  1  0  0  0
 38 31  1  0  0  0
 18 13  1  0  0  0
 25 29  1  0  0  0
  9 10  1  0  0  0
M  END
> <minimizedAffinity>
-6.69024

> <minimizedRMSD>
1.89346

$$$$



 39 43  0  0  0  0  0  0  0  0999 V2000
   35.7763  -17.0459   25.5036 N   0  0  0  0  0  0  0  0  0  0  0  0
   34.9697  -18.0129   25.0843 C   0  0  0  0  0  0  0  0  0  0  0  0
   33.6359  -17.8354   24.9953 O   0  0  0  0  0  0  0  0  0  0  0  0
   35.4768  -19.2147   24.7977 N   0  0  0  0  0  0  0  0  0  0  0  0
   36.7641  -19.4068   24.8868 C   0  0  0  0  0  0  0  0  0  0  0  0
   37.5810  -18.4369   25.2946 N   0  0  0  0  0  0  0  0  0  0  0  0
   37.0803  -17.2399   25.5997 C   0  0  0  0  0  0  0  0  0  0  0  0
   37.8018  -16.3705   25.9805 O   0  0  0  0  0  0  0  0  0  0  0  0
   37.2581  -20.7131   24.5225 N   0  0  0  0  0  0  0  0  0  0  0  0
   38.2243  -20.9017   24.5082 H   0  0  0  0  0  0  0  0  0  0  0  0
   36.2925  -21.7427   24.1774 C   0  0  0  0  0  0  0  0  0  0  0  0
   35.5932  -22.3608   25.2215 C   0  0  0  0  0  0  0  0  0  0  0  0
   34.6372  -23.3567   24.9294 C   0  0  0  0  0  0  0  0  0  0  0  0
   33.7590  -24.1675   25.7216 C   0  0  0  0  0  0  0  0  0  0  0  0
   33.0815  -24.9339   24.8900 N   0  0  0  0  0  0  0  0  0  0  0  0
   32.0814  -25.9062   25.2741 C   0  0  0  0  0  0  0  0  0  0  0  0
   33.4393  -24.6859   23.6307 N   0  0  0  0  0  0  0  0  0  0  0  0
   34.3894  -23.7415   23.6138 C   0  0  0  0  0  0  0  0  0  0  0  0
   35.0894  -23.1219   22.5533 C   0  0  0  0  0  0  0  0  0  0  0  0
   36.0284  -22.1419   22.8435 C   0  0  0  0  0  0  0  0  0  0  0  0
   36.8865  -21.3906   21.4820 Cl  0  0  0  0  0  0  0  0  0  0  0  0
   35.2016  -15.7389   25.7496 C   0  0  0  0  0  0  0  0  0  0  0  0
   32.8325  -13.4581   25.1736 C   0  0  0  0  0  0  0  0  0  0  0  0
   33.7213  -14.2022   24.2507 C   0  0  0  0  0  0  0  0  0  0  0  0
   33.6731  -14.0083   22.8964 N   0  0  0  0  0  0  0  0  0  0  0  0
   34.5354  -14.7722   22.2131 N   0  0  0  0  0  0  0  0  0  0  0  0
   35.1727  -15.4582   23.1621 C   0  0  0  0  0  0  0  0  0  0  0  0
   34.7095  -15.1497   24.4645 C   0  0  0  0  0  0  0  0  0  0  0  0
   33.0623  -13.3677   22.4654 H   0  0  0  0  0  0  0  0  0  0  0  0
   39.0140  -18.6621   25.4054 C   0  0  0  0  0  0  0  0  0  0  0  0
   39.7193  -18.2423   24.1192 C   0  0  0  0  0  0  0  0  0  0  0  0
   39.1349  -18.4571   22.8654 C   0  0  0  0  0  0  0  0  0  0  0  0
   39.8073  -18.0406   21.7290 C   0  0  0  0  0  0  0  0  0  0  0  0
   39.2995  -18.2143   20.4742 F   0  0  0  0  0  0  0  0  0  0  0  0
   41.0451  -17.4445   21.8360 C   0  0  0  0  0  0  0  0  0  0  0  0
   41.6605  -17.0639   20.6904 F   0  0  0  0  0  0  0  0  0  0  0  0
   41.6319  -17.2335   23.0704 C   0  0  0  0  0  0  0  0  0  0  0  0
   40.9622  -17.6391   24.2058 C   0  0  0  0  0  0  0  0  0  0  0  0
   41.5159  -17.4368   25.4294 F   0  0  0  0  0  0  0  0  0  0  0  0
 23 24  1  0  0  0
 24 25  1  0  0  0
 25 26  1  0  0  0
 26 27  2  0  0  0
 27 28  1  0  0  0
 28 22  1  0  0  0
 22  1  1  0  0  0
  1  2  1  0  0  0
  2  3  2  0  0  0
  2  4  1  0  0  0
  4  5  2  0  0  0
  5  9  1  0  0  0
  9 11  1  0  0  0
 11 12  2  0  0  0
 12 13  1  0  0  0
 13 14  2  0  0  0
 14 15  1  0  0  0
 15 16  1  0  0  0
 15 17  1  0  0  0
 17 18  2  0  0  0
 18 19  1  0  0  0
 19 20  2  0  0  0
 20 21  1  0  0  0
  5  6  1  0  0  0
  6 30  1  0  0  0
 30 31  1  0  0  0
 31 32  2  0  0  0
 32 33  1  0  0  0
 33 34  1  0  0  0
 33 35  2  0  0  0
 35 36  1  0  0  0
 35 37  1  0  0  0
 37 38  2  0  0  0
 38 39  1  0  0  0
  6  7  1  0  0  0
  7  8  2  0  0  0
 28 24  2  0  0  0
  7  1  1  0  0  0
 20 11  1  0  0  0
 38 31  1  0  0  0
 18 13  1  0  0  0
 25 29  1  0  0  0
  9 10  1  0  0  0
M  END
> <minimizedAffinity>
-8.88916

> <minimizedRMSD>
2.04287

$$$$



 39 43  0  0  0  0  0  0  0  0999 V2000
   35.0625  -16.4064   23.3560 N   0  0  0  0  0  0  0  0  0  0  0  0
   34.4189  -17.5345   23.0832 C   0  0  0  0  0  0  0  0  0  0  0  0
   33.2364  -17.5380   22.4351 O   0  0  0  0  0  0  0  0  0  0  0  0
   34.9198  -18.6974   23.5084 N   0  0  0  0  0  0  0  0  0  0  0  0
   36.0588  -18.7120   24.1445 C   0  0  0  0  0  0  0  0  0  0  0  0
   36.7162  -17.5847   24.4109 N   0  0  0  0  0  0  0  0  0  0  0  0
   36.2140  -16.4188   24.0053 C   0  0  0  0  0  0  0  0  0  0  0  0
   36.7878  -15.4031   24.2524 O   0  0  0  0  0  0  0  0  0  0  0  0
   36.5705  -20.0019   24.5414 N   0  0  0  0  0  0  0  0  0  0  0  0
   37.4135  -20.0778   25.0442 H   0  0  0  0  0  0  0  0  0  0  0  0
   35.8093  -21.1856   24.1796 C   0  0  0  0  0  0  0  0  0  0  0  0
   34.9653  -21.7427   25.1483 C   0  0  0  0  0  0  0  0  0  0  0  0
   34.1986  -22.8850   24.8343 C   0  0  0  0  0  0  0  0  0  0  0  0
   33.2544  -23.6886   25.5546 C   0  0  0  0  0  0  0  0  0  0  0  0
   32.8523  -24.6420   24.7378 N   0  0  0  0  0  0  0  0  0  0  0  0
   31.8940  -25.6754   25.0651 C   0  0  0  0  0  0  0  0  0  0  0  0
   33.4479  -24.5220   23.5520 N   0  0  0  0  0  0  0  0  0  0  0  0
   34.2808  -23.4730   23.5743 C   0  0  0  0  0  0  0  0  0  0  0  0
   35.1289  -22.9166   22.5895 C   0  0  0  0  0  0  0  0  0  0  0  0
   35.8811  -21.7925   22.9009 C   0  0  0  0  0  0  0  0  0  0  0  0
   36.9348  -21.1269   21.6356 Cl  0  0  0  0  0  0  0  0  0  0  0  0
   34.5219  -15.1695   22.8300 C   0  0  0  0  0  0  0  0  0  0  0  0
   33.7158  -16.1102   25.9231 C   0  0  0  0  0  0  0  0  0  0  0  0
   33.4877  -14.8380   25.1972 C   0  0  0  0  0  0  0  0  0  0  0  0
   32.8530  -13.7785   25.7865 N   0  0  0  0  0  0  0  0  0  0  0  0
   32.7319  -12.7104   24.9849 N   0  0  0  0  0  0  0  0  0  0  0  0
   33.3098  -13.1020   23.8488 C   0  0  0  0  0  0  0  0  0  0  0  0
   33.8139  -14.4234   23.9167 C   0  0  0  0  0  0  0  0  0  0  0  0
   32.5170  -13.7985   26.7116 H   0  0  0  0  0  0  0  0  0  0  0  0
   37.9789  -17.6071   25.1330 C   0  0  0  0  0  0  0  0  0  0  0  0
   39.1481  -17.6981   24.1568 C   0  0  0  0  0  0  0  0  0  0  0  0
   38.9407  -17.9378   22.7934 C   0  0  0  0  0  0  0  0  0  0  0  0
   40.0340  -17.9925   21.9455 C   0  0  0  0  0  0  0  0  0  0  0  0
   39.9093  -18.2202   20.6056 F   0  0  0  0  0  0  0  0  0  0  0  0
   41.3079  -17.8358   22.4469 C   0  0  0  0  0  0  0  0  0  0  0  0
   42.3406  -17.9063   21.5725 F   0  0  0  0  0  0  0  0  0  0  0  0
   41.5219  -17.6039   23.7935 C   0  0  0  0  0  0  0  0  0  0  0  0
   40.4356  -17.5403   24.6406 C   0  0  0  0  0  0  0  0  0  0  0  0
   40.6206  -17.3075   25.9658 F   0  0  0  0  0  0  0  0  0  0  0  0
 23 24  1  0  0  0
 24 25  1  0  0  0
 25 26  1  0  0  0
 26 27  2  0  0  0
 27 28  1  0  0  0
 28 22  1  0  0  0
 22  1  1  0  0  0
  1  2  1  0  0  0
  2  3  2  0  0  0
  2  4  1  0  0  0
  4  5  2  0  0  0
  5  9  1  0  0  0
  9 11  1  0  0  0
 11 12  2  0  0  0
 12 13  1  0  0  0
 13 14  2  0  0  0
 14 15  1  0  0  0
 15 16  1  0  0  0
 15 17  1  0  0  0
 17 18  2  0  0  0
 18 19  1  0  0  0
 19 20  2  0  0  0
 20 21  1  0  0  0
  5  6  1  0  0  0
  6 30  1  0  0  0
 30 31  1  0  0  0
 31 32  2  0  0  0
 32 33  1  0  0  0
 33 34  1  0  0  0
 33 35  2  0  0  0
 35 36  1  0  0  0
 35 37  1  0  0  0
 37 38  2  0  0  0
 38 39  1  0  0  0
  6  7  1  0  0  0
  7  8  2  0  0  0
 28 24  2  0  0  0
  7  1  1  0  0  0
 20 11  1  0  0  0
 38 31  1  0  0  0
 18 13  1  0  0  0
 25 29  1  0  0  0
  9 10  1  0  0  0
M  END
> <minimizedAffinity>
-10.71037

> <minimizedRMSD>
0.79678

$$$$
